<?xml version="1.0" encoding="UTF-8"?>

<!-- generated on 08/19/19 17:32:08 by Eclipse SUMO netedit Version 1.2.0
<configuration xmlns:xsi="http://www.w3.org/2001/XMLSchema-instance" xsi:noNamespaceSchemaLocation="http://sumo.dlr.de/xsd/netconvertConfiguration.xsd">

    <input>
        <sumo-net-file value="C:\Program%20Files\Simulacion-master\mapa01.net.xml"/>
    </input>

    <output>
        <output-file value="C:\Program%20Files\Simulacion-master\mapa01.net.xml"/>
    </output>

    <processing>
        <geometry.max-grade.fix value="false"/>
        <offset.disable-normalization value="true"/>
        <lefthand value="false"/>
    </processing>

    <junctions>
        <no-turnarounds value="true"/>
        <junctions.corner-detail value="5"/>
        <junctions.limit-turn-speed value="5.5"/>
        <rectangular-lane-cut value="false"/>
    </junctions>

    <pedestrian>
        <walkingareas value="false"/>
    </pedestrian>

    <netedit>
        <route-files value="C:\Program%20Files\Simulacion-master\CamilaRutas.xml"/>
    </netedit>

</configuration>
-->

<net version="1.1" junctionCornerDetail="5" limitTurnSpeed="5.50" xmlns:xsi="http://www.w3.org/2001/XMLSchema-instance" xsi:noNamespaceSchemaLocation="http://sumo.dlr.de/xsd/net_file.xsd">

    <location netOffset="-697648.35,439777.31" convBoundary="19.80,186.78,1921.77,2757.61" origBoundary="-79.219854,-3.976780,-79.190062,-3.951874" projParameter="+proj=utm +zone=17 +ellps=WGS84 +datum=WGS84 +units=m +no_defs"/>

    <type id="highway.bridleway" priority="1" numLanes="1" speed="2.78" allow="pedestrian" oneway="1" width="2.00"/>
    <type id="highway.bus_guideway" priority="1" numLanes="1" speed="27.78" allow="bus" oneway="1"/>
    <type id="highway.cycleway" priority="1" numLanes="1" speed="8.33" allow="bicycle" oneway="0" width="1.00"/>
    <type id="highway.footway" priority="1" numLanes="1" speed="2.78" allow="pedestrian" oneway="1" width="2.00"/>
    <type id="highway.ford" priority="1" numLanes="1" speed="2.78" allow="army" oneway="0"/>
    <type id="highway.living_street" priority="2" numLanes="1" speed="2.78" disallow="tram rail_urban rail rail_electric ship" oneway="0"/>
    <type id="highway.motorway" priority="14" numLanes="2" speed="39.44" allow="private emergency authority army vip passenger hov taxi bus coach delivery truck trailer motorcycle evehicle custom1 custom2" oneway="1"/>
    <type id="highway.motorway_link" priority="9" numLanes="1" speed="22.22" allow="private emergency authority army vip passenger hov taxi bus coach delivery truck trailer motorcycle evehicle custom1 custom2" oneway="1"/>
    <type id="highway.path" priority="1" numLanes="1" speed="2.78" allow="bicycle pedestrian" oneway="1" width="2.00"/>
    <type id="highway.pedestrian" priority="1" numLanes="1" speed="2.78" allow="pedestrian" oneway="1" width="2.00"/>
    <type id="highway.primary" priority="12" numLanes="2" speed="27.78" disallow="tram rail_urban rail rail_electric ship" oneway="0"/>
    <type id="highway.primary_link" priority="7" numLanes="1" speed="22.22" disallow="tram rail_urban rail rail_electric ship" oneway="0"/>
    <type id="highway.raceway" priority="15" numLanes="2" speed="83.33" allow="vip" oneway="0"/>
    <type id="highway.residential" priority="3" numLanes="1" speed="13.89" disallow="tram rail_urban rail rail_electric ship" oneway="0"/>
    <type id="highway.secondary" priority="11" numLanes="2" speed="27.78" disallow="tram rail_urban rail rail_electric ship" oneway="0"/>
    <type id="highway.secondary_link" priority="6" numLanes="1" speed="22.22" disallow="tram rail_urban rail rail_electric ship" oneway="0"/>
    <type id="highway.service" priority="1" numLanes="1" speed="5.56" allow="delivery bicycle pedestrian" oneway="0"/>
    <type id="highway.stairs" priority="1" numLanes="1" speed="1.39" allow="pedestrian" oneway="1" width="2.00"/>
    <type id="highway.step" priority="1" numLanes="1" speed="1.39" allow="pedestrian" oneway="1" width="2.00"/>
    <type id="highway.steps" priority="1" numLanes="1" speed="1.39" allow="pedestrian" oneway="1" width="2.00"/>
    <type id="highway.tertiary" priority="10" numLanes="1" speed="22.22" disallow="tram rail_urban rail rail_electric ship" oneway="0"/>
    <type id="highway.tertiary_link" priority="5" numLanes="1" speed="22.22" disallow="tram rail_urban rail rail_electric ship" oneway="0"/>
    <type id="highway.track" priority="1" numLanes="1" speed="5.56" disallow="tram rail_urban rail rail_electric ship" oneway="0"/>
    <type id="highway.trunk" priority="13" numLanes="2" speed="27.78" disallow="tram rail_urban rail rail_electric bicycle pedestrian ship" oneway="0"/>
    <type id="highway.trunk_link" priority="8" numLanes="1" speed="22.22" disallow="tram rail_urban rail rail_electric bicycle pedestrian ship" oneway="0"/>
    <type id="highway.unclassified" priority="4" numLanes="1" speed="13.89" disallow="tram rail_urban rail rail_electric ship" oneway="0"/>
    <type id="highway.unsurfaced" priority="1" numLanes="1" speed="8.33" disallow="tram rail_urban rail rail_electric ship" oneway="0"/>
    <type id="railway.light_rail" priority="19" numLanes="1" speed="27.78" allow="rail_urban" oneway="1"/>
    <type id="railway.preserved" priority="16" numLanes="1" speed="27.78" allow="rail" oneway="1"/>
    <type id="railway.rail" priority="20" numLanes="1" speed="83.33" allow="rail rail_electric" oneway="1"/>
    <type id="railway.subway" priority="18" numLanes="1" speed="27.78" allow="rail_urban" oneway="1"/>
    <type id="railway.tram" priority="17" numLanes="1" speed="13.89" allow="tram" oneway="1"/>

    <edge id=":1202681157_0" function="internal">
        <lane id=":1202681157_0_0" index="0" disallow="tram rail_urban rail rail_electric ship" speed="7.03" length="8.06" shape="1338.79,748.13 1336.56,747.37 1334.57,747.26 1332.83,747.78 1331.33,748.94"/>
    </edge>
    <edge id=":1202681157_1" function="internal">
        <lane id=":1202681157_1_0" index="0" disallow="tram rail_urban rail rail_electric ship" speed="19.44" length="9.23" shape="1337.70,742.30 1331.33,748.94"/>
        <lane id=":1202681157_1_1" index="1" disallow="tram rail_urban rail rail_electric ship" speed="19.44" length="9.23" shape="1335.41,740.07 1328.99,746.76"/>
    </edge>
    <edge id=":1254209056_0" function="internal">
        <lane id=":1254209056_0_0" index="0" disallow="tram rail_urban rail rail_electric ship" speed="7.34" length="9.21" shape="1318.94,762.26 1317.72,764.09 1317.28,766.12 1317.62,768.35 1318.74,770.78"/>
    </edge>
    <edge id=":1254209056_1" function="internal">
        <lane id=":1254209056_1_0" index="0" disallow="tram rail_urban rail rail_electric ship" speed="19.44" length="13.02" shape="1318.94,762.26 1309.82,771.64"/>
        <lane id=":1254209056_1_1" index="1" disallow="tram rail_urban rail rail_electric ship" speed="19.44" length="13.02" shape="1316.60,760.08 1307.57,769.36"/>
    </edge>
    <edge id=":1254209056_3" function="internal">
        <lane id=":1254209056_3_0" index="0" disallow="tram rail_urban rail rail_electric ship" speed="26.86" length="13.64" shape="1309.48,760.17 1312.76,762.80 1314.84,764.83 1316.55,767.18 1318.74,770.78"/>
        <lane id=":1254209056_3_1" index="1" disallow="tram rail_urban rail rail_electric ship" speed="25.71" length="13.64" shape="1307.51,762.69 1310.52,765.11 1312.42,766.96 1313.98,769.12 1315.99,772.42"/>
    </edge>
    <edge id=":1254209056_5" function="internal">
        <lane id=":1254209056_5_0" index="0" disallow="tram rail_urban rail rail_electric ship" speed="5.87" length="7.85" shape="1307.51,762.69 1308.94,764.22 1309.42,765.84 1308.97,767.56 1307.57,769.36"/>
    </edge>
    <edge id=":1440548291_0" function="internal">
        <lane id=":1440548291_0_0" index="0" disallow="tram rail_urban rail rail_electric ship" speed="3.65" length="4.67" shape="1758.85,1141.42 1758.07,1142.64 1757.28,1143.05 1756.47,1142.66 1755.65,1141.48"/>
    </edge>
    <edge id=":1440548402_0" function="internal">
        <lane id=":1440548402_0_0" index="0" disallow="tram rail_urban rail rail_electric ship" speed="6.53" length="8.32" shape="1705.12,953.20 1703.01,952.42 1701.10,952.45 1699.38,953.29 1697.86,954.94"/>
    </edge>
    <edge id=":1440548402_1" function="internal">
        <lane id=":1440548402_1_0" index="0" disallow="tram rail_urban rail rail_electric ship" speed="8.74" length="12.76" shape="1705.12,953.20 1702.27,951.20 1700.40,948.78 1699.50,945.95 1699.57,942.70"/>
    </edge>
    <edge id=":1440548402_2" function="internal">
        <lane id=":1440548402_2_0" index="0" disallow="tram rail_urban rail rail_electric ship" speed="3.65" length="4.67" shape="1705.12,953.20 1704.44,951.93 1704.47,951.04 1705.20,950.52 1706.64,950.39"/>
    </edge>
    <edge id=":1440548402_3" function="internal">
        <lane id=":1440548402_3_0" index="0" disallow="tram rail_urban rail rail_electric ship" speed="7.34" length="8.77" shape="1702.73,943.22 1702.69,945.41 1703.33,947.34 1704.64,949.00 1706.64,950.39"/>
    </edge>
    <edge id=":1440548402_4" function="internal">
        <lane id=":1440548402_4_0" index="0" disallow="tram rail_urban rail rail_electric ship" speed="13.89" length="12.83" shape="1702.73,943.22 1702.03,946.55 1701.06,949.39 1699.71,952.07 1697.86,954.94"/>
    </edge>
    <edge id=":1440548402_5" function="internal">
        <lane id=":1440548402_5_0" index="0" disallow="tram rail_urban rail rail_electric ship" speed="3.65" length="2.34" shape="1702.73,943.22 1701.75,944.27 1700.89,944.54"/>
    </edge>
    <edge id=":1440548402_9" function="internal">
        <lane id=":1440548402_9_0" index="0" disallow="tram rail_urban rail rail_electric ship" speed="3.65" length="2.34" shape="1700.89,944.54 1700.17,944.02 1699.57,942.70"/>
    </edge>
    <edge id=":1440548402_6" function="internal">
        <lane id=":1440548402_6_0" index="0" disallow="tram rail_urban rail rail_electric ship" speed="13.89" length="11.43" shape="1695.23,953.12 1696.99,950.45 1698.17,948.22 1698.95,945.83 1699.57,942.70"/>
    </edge>
    <edge id=":1440548402_7" function="internal">
        <lane id=":1440548402_7_0" index="0" disallow="tram rail_urban rail rail_electric ship" speed="8.03" length="5.12" shape="1695.23,953.12 1697.62,950.53 1699.05,949.83"/>
    </edge>
    <edge id=":1440548402_8" function="internal">
        <lane id=":1440548402_8_0" index="0" disallow="tram rail_urban rail rail_electric ship" speed="3.65" length="2.34" shape="1695.23,953.12 1696.57,952.59 1697.45,952.72"/>
    </edge>
    <edge id=":1440548402_10" function="internal">
        <lane id=":1440548402_10_0" index="0" disallow="tram rail_urban rail rail_electric ship" speed="8.03" length="7.96" shape="1699.05,949.83 1700.32,949.20 1703.33,949.16 1706.64,950.39"/>
    </edge>
    <edge id=":1440548402_11" function="internal">
        <lane id=":1440548402_11_0" index="0" disallow="tram rail_urban rail rail_electric ship" speed="3.65" length="2.34" shape="1697.45,952.72 1697.88,953.50 1697.86,954.94"/>
    </edge>
    <edge id=":1440548419_0" function="internal">
        <lane id=":1440548419_0_0" index="0" disallow="tram rail_urban rail rail_electric ship" speed="3.65" length="4.67" shape="1862.00,977.55 1861.46,978.89 1860.76,979.45 1859.89,979.22 1858.86,978.21"/>
    </edge>
    <edge id=":1440548422_0" function="internal">
        <lane id=":1440548422_0_0" index="0" disallow="tram rail_urban rail rail_electric ship" speed="3.65" length="4.67" shape="1812.00,975.84 1811.84,977.27 1811.31,977.99 1810.41,978.00 1809.16,977.30"/>
    </edge>
    <edge id=":1440548448_0" function="internal">
        <lane id=":1440548448_0_0" index="0" disallow="tram rail_urban rail rail_electric ship" speed="13.89" length="12.43" shape="1782.44,925.07 1780.76,922.19 1778.97,919.97 1776.85,918.02 1774.20,915.96"/>
    </edge>
    <edge id=":1440548448_1" function="internal">
        <lane id=":1440548448_1_0" index="0" disallow="tram rail_urban rail rail_electric ship" speed="10.44" length="4.79" shape="1782.44,925.07 1781.39,922.04 1781.32,920.46"/>
    </edge>
    <edge id=":1440548448_2" function="internal">
        <lane id=":1440548448_2_0" index="0" disallow="tram rail_urban rail rail_electric ship" speed="3.65" length="2.22" shape="1782.44,925.07 1782.61,923.64 1783.07,923.01"/>
    </edge>
    <edge id=":1440548448_9" function="internal">
        <lane id=":1440548448_9_0" index="0" disallow="tram rail_urban rail rail_electric ship" speed="10.44" length="9.08" shape="1781.32,920.46 1781.24,918.82 1781.99,915.42 1783.64,911.82"/>
    </edge>
    <edge id=":1440548448_10" function="internal">
        <lane id=":1440548448_10_0" index="0" disallow="tram rail_urban rail rail_electric ship" speed="3.65" length="2.46" shape="1783.07,923.01 1783.14,922.92 1784.03,922.91 1785.29,923.61"/>
    </edge>
    <edge id=":1440548448_3" function="internal">
        <lane id=":1440548448_3_0" index="0" disallow="tram rail_urban rail rail_electric ship" speed="9.23" length="10.70" shape="1786.42,913.41 1785.10,916.25 1784.47,918.90 1784.53,921.35 1785.29,923.61"/>
    </edge>
    <edge id=":1440548448_4" function="internal">
        <lane id=":1440548448_4_0" index="0" disallow="tram rail_urban rail rail_electric ship" speed="7.80" length="14.68" shape="1786.42,913.41 1783.91,916.64 1781.03,918.14 1777.79,917.92 1774.20,915.96"/>
    </edge>
    <edge id=":1440548448_5" function="internal">
        <lane id=":1440548448_5_0" index="0" disallow="tram rail_urban rail rail_electric ship" speed="3.65" length="4.67" shape="1786.42,913.41 1785.13,914.05 1784.24,914.01 1783.74,913.26 1783.64,911.82"/>
    </edge>
    <edge id=":1440548448_6" function="internal">
        <lane id=":1440548448_6_0" index="0" disallow="tram rail_urban rail rail_electric ship" speed="6.25" length="9.05" shape="1776.11,913.39 1778.33,914.60 1780.32,914.74 1782.09,913.82 1783.64,911.82"/>
    </edge>
    <edge id=":1440548448_7" function="internal">
        <lane id=":1440548448_7_0" index="0" disallow="tram rail_urban rail rail_electric ship" speed="13.89" length="13.87" shape="1776.11,913.39 1778.92,915.63 1781.35,917.96 1783.46,920.56 1785.29,923.61"/>
    </edge>
    <edge id=":1440548448_8" function="internal">
        <lane id=":1440548448_8_0" index="0" disallow="tram rail_urban rail rail_electric ship" speed="3.65" length="2.34" shape="1776.11,913.39 1776.59,914.75 1776.44,915.63"/>
    </edge>
    <edge id=":1440548448_11" function="internal">
        <lane id=":1440548448_11_0" index="0" disallow="tram rail_urban rail rail_electric ship" speed="3.65" length="2.34" shape="1776.44,915.63 1775.64,916.04 1774.20,915.96"/>
    </edge>
    <edge id=":1440548485_0" function="internal">
        <lane id=":1440548485_0_0" index="0" disallow="tram rail_urban rail rail_electric ship" speed="6.73" length="9.97" shape="1804.51,893.20 1801.73,892.11 1799.39,892.06 1797.48,893.04 1796.01,895.06"/>
    </edge>
    <edge id=":1440548485_1" function="internal">
        <lane id=":1440548485_1_0" index="0" disallow="tram rail_urban rail rail_electric ship" speed="7.55" length="15.61" shape="1804.51,893.20 1800.88,890.54 1799.39,887.59 1800.06,884.36 1802.88,880.84"/>
    </edge>
    <edge id=":1440548485_2" function="internal">
        <lane id=":1440548485_2_0" index="0" disallow="tram rail_urban rail rail_electric ship" speed="3.65" length="4.67" shape="1804.51,893.20 1803.83,891.93 1803.86,891.04 1804.59,890.52 1806.02,890.38"/>
    </edge>
    <edge id=":1440548485_3" function="internal">
        <lane id=":1440548485_3_0" index="0" disallow="tram rail_urban rail rail_electric ship" speed="5.92" length="9.10" shape="1805.07,883.18 1803.43,885.23 1803.04,887.11 1803.90,888.83 1806.02,890.38"/>
    </edge>
    <edge id=":1440548485_4" function="internal">
        <lane id=":1440548485_4_0" index="0" disallow="tram rail_urban rail rail_electric ship" speed="13.89" length="15.02" shape="1805.07,883.18 1802.43,885.85 1800.00,888.72 1797.85,891.79 1796.01,895.06"/>
    </edge>
    <edge id=":1440548485_5" function="internal">
        <lane id=":1440548485_5_0" index="0" disallow="tram rail_urban rail rail_electric ship" speed="3.65" length="2.34" shape="1805.07,883.18 1803.65,883.42 1802.81,883.11"/>
    </edge>
    <edge id=":1440548485_9" function="internal">
        <lane id=":1440548485_9_0" index="0" disallow="tram rail_urban rail rail_electric ship" speed="3.65" length="2.34" shape="1802.81,883.11 1802.55,882.25 1802.88,880.84"/>
    </edge>
    <edge id=":1440548485_6" function="internal">
        <lane id=":1440548485_6_0" index="0" disallow="tram rail_urban rail rail_electric ship" speed="13.89" length="16.15" shape="1793.14,893.64 1795.08,890.23 1797.47,886.85 1800.13,883.66 1802.88,880.84"/>
    </edge>
    <edge id=":1440548485_7" function="internal">
        <lane id=":1440548485_7_0" index="0" disallow="tram rail_urban rail rail_electric ship" speed="8.18" length="6.61" shape="1793.14,893.64 1795.43,890.43 1797.76,889.14"/>
    </edge>
    <edge id=":1440548485_8" function="internal">
        <lane id=":1440548485_8_0" index="0" disallow="tram rail_urban rail rail_electric ship" speed="3.65" length="2.34" shape="1793.14,893.64 1794.39,892.92 1795.28,892.92"/>
    </edge>
    <edge id=":1440548485_10" function="internal">
        <lane id=":1440548485_10_0" index="0" disallow="tram rail_urban rail rail_electric ship" speed="8.18" length="8.64" shape="1797.76,889.14 1798.34,888.81 1801.87,888.80 1806.02,890.38"/>
    </edge>
    <edge id=":1440548485_11" function="internal">
        <lane id=":1440548485_11_0" index="0" disallow="tram rail_urban rail rail_electric ship" speed="3.65" length="2.34" shape="1795.28,892.92 1795.82,893.63 1796.01,895.06"/>
    </edge>
    <edge id=":1440548487_0" function="internal">
        <lane id=":1440548487_0_0" index="0" disallow="tram rail_urban rail rail_electric ship" speed="5.98" length="9.08" shape="1718.09,885.15 1715.61,884.38 1713.70,884.69 1712.35,886.09 1711.58,888.58"/>
    </edge>
    <edge id=":1440548487_1" function="internal">
        <lane id=":1440548487_1_0" index="0" disallow="tram rail_urban rail rail_electric ship" speed="13.89" length="13.25" shape="1718.09,885.15 1714.95,883.67 1712.07,882.39 1709.16,881.21 1705.88,880.05"/>
    </edge>
    <edge id=":1440548487_2" function="internal">
        <lane id=":1440548487_2_0" index="0" disallow="tram rail_urban rail rail_electric ship" speed="3.65" length="2.34" shape="1718.09,885.15 1717.35,883.91 1717.34,883.02"/>
    </edge>
    <edge id=":1440548487_9" function="internal">
        <lane id=":1440548487_9_0" index="0" disallow="tram rail_urban rail rail_electric ship" speed="3.65" length="2.34" shape="1717.34,883.02 1718.04,882.47 1719.47,882.26"/>
    </edge>
    <edge id=":1440548487_3" function="internal">
        <lane id=":1440548487_3_0" index="0" disallow="tram rail_urban rail rail_electric ship" speed="13.89" length="13.64" shape="1706.89,877.01 1710.22,878.19 1713.26,879.42 1716.26,880.76 1719.47,882.26"/>
    </edge>
    <edge id=":1440548487_4" function="internal">
        <lane id=":1440548487_4_0" index="0" disallow="tram rail_urban rail rail_electric ship" speed="8.36" length="4.89" shape="1706.89,877.01 1709.51,878.51 1710.57,880.05"/>
    </edge>
    <edge id=":1440548487_5" function="internal">
        <lane id=":1440548487_5_0" index="0" disallow="tram rail_urban rail rail_electric ship" speed="3.65" length="2.34" shape="1706.89,877.01 1707.78,878.15 1707.90,879.03"/>
    </edge>
    <edge id=":1440548487_10" function="internal">
        <lane id=":1440548487_10_0" index="0" disallow="tram rail_urban rail rail_electric ship" speed="8.36" length="8.79" shape="1710.57,880.05 1711.17,880.93 1711.86,884.29 1711.58,888.58"/>
    </edge>
    <edge id=":1440548487_11" function="internal">
        <lane id=":1440548487_11_0" index="0" disallow="tram rail_urban rail rail_electric ship" speed="3.65" length="2.34" shape="1707.90,879.03 1707.27,879.67 1705.88,880.05"/>
    </edge>
    <edge id=":1440548487_6" function="internal">
        <lane id=":1440548487_6_0" index="0" disallow="tram rail_urban rail rail_electric ship" speed="6.94" length="9.14" shape="1708.42,888.07 1708.67,885.01 1708.33,882.66 1707.40,881.00 1705.88,880.05"/>
    </edge>
    <edge id=":1440548487_7" function="internal">
        <lane id=":1440548487_7_0" index="0" disallow="tram rail_urban rail rail_electric ship" speed="7.59" length="15.41" shape="1708.42,888.07 1709.73,883.86 1712.01,881.48 1715.25,880.95 1719.47,882.26"/>
    </edge>
    <edge id=":1440548487_8" function="internal">
        <lane id=":1440548487_8_0" index="0" disallow="tram rail_urban rail rail_electric ship" speed="3.65" length="4.67" shape="1708.42,888.07 1709.40,887.01 1710.26,886.75 1710.98,887.27 1711.58,888.58"/>
    </edge>
    <edge id=":1440548500_0" function="internal">
        <lane id=":1440548500_0_0" index="0" disallow="tram rail_urban rail rail_electric ship" speed="13.89" length="14.53" shape="1841.16,850.07 1838.29,852.37 1835.56,854.69 1832.88,857.09 1830.19,859.59"/>
    </edge>
    <edge id=":1440548500_1" function="internal">
        <lane id=":1440548500_1_0" index="0" disallow="tram rail_urban rail rail_electric ship" speed="10.26" length="5.31" shape="1841.16,850.07 1838.22,851.66 1836.28,851.98"/>
    </edge>
    <edge id=":1440548500_2" function="internal">
        <lane id=":1440548500_2_0" index="0" disallow="tram rail_urban rail rail_electric ship" speed="3.65" length="2.34" shape="1841.16,850.07 1839.72,850.17 1838.92,849.78"/>
    </edge>
    <edge id=":1440548500_9" function="internal">
        <lane id=":1440548500_9_0" index="0" disallow="tram rail_urban rail rail_electric ship" speed="10.26" length="9.75" shape="1836.28,851.98 1834.85,852.22 1831.06,851.74 1826.84,850.24"/>
    </edge>
    <edge id=":1440548500_10" function="internal">
        <lane id=":1440548500_10_0" index="0" disallow="tram rail_urban rail rail_electric ship" speed="3.65" length="2.34" shape="1838.92,849.78 1838.75,848.90 1839.21,847.54"/>
    </edge>
    <edge id=":1440548500_3" function="internal">
        <lane id=":1440548500_3_0" index="0" disallow="tram rail_urban rail rail_electric ship" speed="9.05" length="11.59" shape="1828.17,847.33 1831.52,848.55 1834.48,849.00 1837.05,848.66 1839.21,847.54"/>
    </edge>
    <edge id=":1440548500_4" function="internal">
        <lane id=":1440548500_4_0" index="0" disallow="tram rail_urban rail rail_electric ship" speed="7.49" length="15.96" shape="1828.17,847.33 1832.10,849.83 1833.75,852.71 1833.11,855.96 1830.19,859.59"/>
    </edge>
    <edge id=":1440548500_5" function="internal">
        <lane id=":1440548500_5_0" index="0" disallow="tram rail_urban rail rail_electric ship" speed="3.65" length="4.67" shape="1828.17,847.33 1828.93,848.55 1828.96,849.45 1828.27,850.01 1826.84,850.24"/>
    </edge>
    <edge id=":1440548500_6" function="internal">
        <lane id=":1440548500_6_0" index="0" disallow="tram rail_urban rail rail_electric ship" speed="5.83" length="9.13" shape="1828.00,857.26 1829.67,855.18 1830.04,853.32 1829.09,851.67 1826.84,850.24"/>
    </edge>
    <edge id=":1440548500_7" function="internal">
        <lane id=":1440548500_7_0" index="0" disallow="tram rail_urban rail rail_electric ship" speed="13.89" length="14.84" shape="1828.00,857.26 1830.73,854.72 1833.49,852.26 1836.30,849.86 1839.21,847.54"/>
    </edge>
    <edge id=":1440548500_8" function="internal">
        <lane id=":1440548500_8_0" index="0" disallow="tram rail_urban rail rail_electric ship" speed="3.65" length="2.34" shape="1828.00,857.26 1829.42,857.02 1830.26,857.33"/>
    </edge>
    <edge id=":1440548500_11" function="internal">
        <lane id=":1440548500_11_0" index="0" disallow="tram rail_urban rail rail_electric ship" speed="3.65" length="2.34" shape="1830.26,857.33 1830.52,858.19 1830.19,859.59"/>
    </edge>
    <edge id=":1440548502_0" function="internal">
        <lane id=":1440548502_0_0" index="0" disallow="tram rail_urban rail rail_electric ship" speed="6.43" length="9.03" shape="1854.16,847.21 1852.44,845.41 1850.57,844.62 1848.55,844.84 1846.38,846.06"/>
    </edge>
    <edge id=":1440548502_1" function="internal">
        <lane id=":1440548502_1_0" index="0" disallow="tram rail_urban rail rail_electric ship" speed="7.99" length="14.30" shape="1854.16,847.21 1852.34,843.71 1852.08,840.49 1853.38,837.55 1856.25,834.89"/>
    </edge>
    <edge id=":1440548502_2" function="internal">
        <lane id=":1440548502_2_0" index="0" disallow="tram rail_urban rail rail_electric ship" speed="3.65" length="4.67" shape="1854.16,847.21 1854.11,845.77 1854.53,844.97 1855.41,844.83 1856.76,845.34"/>
    </edge>
    <edge id=":1440548502_3" function="internal">
        <lane id=":1440548502_3_0" index="0" disallow="tram rail_urban rail rail_electric ship" speed="6.49" length="9.08" shape="1858.07,837.52 1856.26,839.21 1855.43,841.08 1855.60,843.12 1856.76,845.34"/>
    </edge>
    <edge id=":1440548502_4" function="internal">
        <lane id=":1440548502_4_0" index="0" disallow="tram rail_urban rail rail_electric ship" speed="13.89" length="14.48" shape="1858.07,837.52 1846.38,846.06"/>
    </edge>
    <edge id=":1440548502_5" function="internal">
        <lane id=":1440548502_5_0" index="0" disallow="tram rail_urban rail rail_electric ship" speed="3.65" length="2.34" shape="1858.07,837.52 1856.63,837.54 1855.85,837.11"/>
    </edge>
    <edge id=":1440548502_9" function="internal">
        <lane id=":1440548502_9_0" index="0" disallow="tram rail_urban rail rail_electric ship" speed="3.65" length="2.34" shape="1855.85,837.11 1855.72,836.23 1856.25,834.89"/>
    </edge>
    <edge id=":1440548502_6" function="internal">
        <lane id=":1440548502_6_0" index="0" disallow="tram rail_urban rail rail_electric ship" speed="13.89" length="14.64" shape="1844.43,843.52 1856.25,834.89"/>
    </edge>
    <edge id=":1440548502_7" function="internal">
        <lane id=":1440548502_7_0" index="0" disallow="tram rail_urban rail rail_electric ship" speed="7.94" length="6.21" shape="1844.43,843.52 1847.87,841.58 1850.12,841.34"/>
    </edge>
    <edge id=":1440548502_8" function="internal">
        <lane id=":1440548502_8_0" index="0" disallow="tram rail_urban rail rail_electric ship" speed="3.65" length="2.34" shape="1844.43,843.52 1845.87,843.42 1846.67,843.81"/>
    </edge>
    <edge id=":1440548502_10" function="internal">
        <lane id=":1440548502_10_0" index="0" disallow="tram rail_urban rail rail_electric ship" speed="7.94" length="8.11" shape="1850.12,841.34 1851.07,841.24 1854.03,842.50 1856.76,845.34"/>
    </edge>
    <edge id=":1440548502_11" function="internal">
        <lane id=":1440548502_11_0" index="0" disallow="tram rail_urban rail rail_electric ship" speed="3.65" length="2.34" shape="1846.67,843.81 1846.84,844.69 1846.38,846.06"/>
    </edge>
    <edge id=":1440548511_0" function="internal">
        <lane id=":1440548511_0_0" index="0" disallow="tram rail_urban rail rail_electric ship" speed="3.65" length="4.67" shape="1907.56,799.35 1909.00,799.33 1909.79,799.76 1909.91,800.64 1909.38,801.99"/>
    </edge>
    <edge id=":1440548515_0" function="internal">
        <lane id=":1440548515_0_0" index="0" disallow="tram rail_urban rail rail_electric ship" speed="6.50" length="9.03" shape="1740.18,785.64 1738.44,783.87 1736.56,783.09 1734.53,783.29 1732.35,784.48"/>
    </edge>
    <edge id=":1440548515_1" function="internal">
        <lane id=":1440548515_1_0" index="0" disallow="tram rail_urban rail rail_electric ship" speed="8.25" length="14.10" shape="1740.18,785.64 1738.31,782.23 1737.88,779.01 1738.87,775.96 1741.30,773.09"/>
    </edge>
    <edge id=":1440548515_2" function="internal">
        <lane id=":1440548515_2_0" index="0" disallow="tram rail_urban rail rail_electric ship" speed="3.65" length="4.67" shape="1740.18,785.64 1740.11,784.20 1740.51,783.40 1741.40,783.25 1742.75,783.74"/>
    </edge>
    <edge id=":1440548515_3" function="internal">
        <lane id=":1440548515_3_0" index="0" disallow="tram rail_urban rail rail_electric ship" speed="6.80" length="9.27" shape="1743.42,775.48 1741.85,777.36 1741.21,779.36 1741.51,781.49 1742.75,783.74"/>
    </edge>
    <edge id=":1440548515_4" function="internal">
        <lane id=":1440548515_4_0" index="0" disallow="tram rail_urban rail rail_electric ship" speed="13.89" length="14.26" shape="1743.42,775.48 1732.35,784.48"/>
    </edge>
    <edge id=":1440548515_5" function="internal">
        <lane id=":1440548515_5_0" index="0" disallow="tram rail_urban rail rail_electric ship" speed="3.65" length="2.34" shape="1743.42,775.48 1741.99,775.68 1741.16,775.35"/>
    </edge>
    <edge id=":1440548515_9" function="internal">
        <lane id=":1440548515_9_0" index="0" disallow="tram rail_urban rail rail_electric ship" speed="3.65" length="2.34" shape="1741.16,775.35 1740.93,774.48 1741.30,773.09"/>
    </edge>
    <edge id=":1440548515_6" function="internal">
        <lane id=":1440548515_6_0" index="0" disallow="tram rail_urban rail rail_electric ship" speed="13.89" length="13.99" shape="1730.44,781.91 1741.30,773.09"/>
    </edge>
    <edge id=":1440548515_7" function="internal">
        <lane id=":1440548515_7_0" index="0" disallow="tram rail_urban rail rail_electric ship" speed="7.99" length="5.51" shape="1730.44,781.91 1733.86,780.05 1735.46,779.89"/>
    </edge>
    <edge id=":1440548515_8" function="internal">