<?xml version="1.0" encoding="UTF-8"?>

<!-- generated on 08/28/19 10:48:36 by Eclipse SUMO netedit Version 1.2.0
<configuration xmlns:xsi="http://www.w3.org/2001/XMLSchema-instance" xsi:noNamespaceSchemaLocation="http://sumo.dlr.de/xsd/netconvertConfiguration.xsd">

    <input>
        <sumo-net-file value="C:\Users\Usuario\Downloads\Simulacion-master\mapa01.net.xml"/>
    </input>

    <output>
        <output-file value="C:\Users\Usuario\Downloads\Simulacion-master\mapa01.net.xml"/>
    </output>

    <processing>
        <geometry.max-grade.fix value="false"/>
        <offset.disable-normalization value="true"/>
        <lefthand value="false"/>
    </processing>

    <junctions>
        <no-turnarounds value="true"/>
        <junctions.corner-detail value="5"/>
        <junctions.limit-turn-speed value="5.5"/>
        <rectangular-lane-cut value="false"/>
    </junctions>

    <pedestrian>
        <walkingareas value="false"/>
    </pedestrian>

</configuration>
-->

<net version="1.1" junctionCornerDetail="5" limitTurnSpeed="5.50" xmlns:xsi="http://www.w3.org/2001/XMLSchema-instance" xsi:noNamespaceSchemaLocation="http://sumo.dlr.de/xsd/net_file.xsd">

    <location netOffset="-697648.35,439777.31" convBoundary="19.80,460.34,1898.13,2757.61" origBoundary="-79.219854,-3.976780,-79.190062,-3.951874" projParameter="+proj=utm +zone=17 +ellps=WGS84 +datum=WGS84 +units=m +no_defs"/>

    <type id="highway.bridleway" priority="1" numLanes="1" speed="2.78" allow="pedestrian" oneway="1" width="2.00"/>
    <type id="highway.bus_guideway" priority="1" numLanes="1" speed="27.78" allow="bus" oneway="1"/>
    <type id="highway.cycleway" priority="1" numLanes="1" speed="8.33" allow="bicycle" oneway="0" width="1.00"/>
    <type id="highway.footway" priority="1" numLanes="1" speed="2.78" allow="pedestrian" oneway="1" width="2.00"/>
    <type id="highway.ford" priority="1" numLanes="1" speed="2.78" allow="army" oneway="0"/>
    <type id="highway.living_street" priority="2" numLanes="1" speed="2.78" disallow="tram rail_urban rail rail_electric ship" oneway="0"/>
    <type id="highway.motorway" priority="14" numLanes="2" speed="39.44" allow="private emergency authority army vip passenger hov taxi bus coach delivery truck trailer motorcycle evehicle custom1 custom2" oneway="1"/>
    <type id="highway.motorway_link" priority="9" numLanes="1" speed="22.22" allow="private emergency authority army vip passenger hov taxi bus coach delivery truck trailer motorcycle evehicle custom1 custom2" oneway="1"/>
    <type id="highway.path" priority="1" numLanes="1" speed="2.78" allow="bicycle pedestrian" oneway="1" width="2.00"/>
    <type id="highway.pedestrian" priority="1" numLanes="1" speed="2.78" allow="pedestrian" oneway="1" width="2.00"/>
    <type id="highway.primary" priority="12" numLanes="2" speed="27.78" disallow="tram rail_urban rail rail_electric ship" oneway="0"/>
    <type id="highway.primary_link" priority="7" numLanes="1" speed="22.22" disallow="tram rail_urban rail rail_electric ship" oneway="0"/>
    <type id="highway.raceway" priority="15" numLanes="2" speed="83.33" allow="vip" oneway="0"/>
    <type id="highway.residential" priority="3" numLanes="1" speed="13.89" disallow="tram rail_urban rail rail_electric ship" oneway="0"/>
    <type id="highway.secondary" priority="11" numLanes="2" speed="27.78" disallow="tram rail_urban rail rail_electric ship" oneway="0"/>
    <type id="highway.secondary_link" priority="6" numLanes="1" speed="22.22" disallow="tram rail_urban rail rail_electric ship" oneway="0"/>
    <type id="highway.service" priority="1" numLanes="1" speed="5.56" allow="delivery bicycle pedestrian" oneway="0"/>
    <type id="highway.stairs" priority="1" numLanes="1" speed="1.39" allow="pedestrian" oneway="1" width="2.00"/>
    <type id="highway.step" priority="1" numLanes="1" speed="1.39" allow="pedestrian" oneway="1" width="2.00"/>
    <type id="highway.steps" priority="1" numLanes="1" speed="1.39" allow="pedestrian" oneway="1" width="2.00"/>
    <type id="highway.tertiary" priority="10" numLanes="1" speed="22.22" disallow="tram rail_urban rail rail_electric ship" oneway="0"/>
    <type id="highway.tertiary_link" priority="5" numLanes="1" speed="22.22" disallow="tram rail_urban rail rail_electric ship" oneway="0"/>
    <type id="highway.track" priority="1" numLanes="1" speed="5.56" disallow="tram rail_urban rail rail_electric ship" oneway="0"/>
    <type id="highway.trunk" priority="13" numLanes="2" speed="27.78" disallow="tram rail_urban rail rail_electric bicycle pedestrian ship" oneway="0"/>
    <type id="highway.trunk_link" priority="8" numLanes="1" speed="22.22" disallow="tram rail_urban rail rail_electric bicycle pedestrian ship" oneway="0"/>
    <type id="highway.unclassified" priority="4" numLanes="1" speed="13.89" disallow="tram rail_urban rail rail_electric ship" oneway="0"/>
    <type id="highway.unsurfaced" priority="1" numLanes="1" speed="8.33" disallow="tram rail_urban rail rail_electric ship" oneway="0"/>
    <type id="railway.light_rail" priority="19" numLanes="1" speed="27.78" allow="rail_urban" oneway="1"/>
    <type id="railway.preserved" priority="16" numLanes="1" speed="27.78" allow="rail" oneway="1"/>
    <type id="railway.rail" priority="20" numLanes="1" speed="83.33" allow="rail rail_electric" oneway="1"/>
    <type id="railway.subway" priority="18" numLanes="1" speed="27.78" allow="rail_urban" oneway="1"/>
    <type id="railway.tram" priority="17" numLanes="1" speed="13.89" allow="tram" oneway="1"/>

    <edge id=":1202681157_0" function="internal">
        <lane id=":1202681157_0_0" index="0" disallow="tram rail_urban rail rail_electric ship" speed="7.03" length="8.06" shape="1338.79,748.13 1336.56,747.37 1334.57,747.26 1332.83,747.78 1331.33,748.94"/>
    </edge>
    <edge id=":1202681157_1" function="internal">
        <lane id=":1202681157_1_0" index="0" disallow="tram rail_urban rail rail_electric ship" speed="19.44" length="9.23" shape="1337.70,742.30 1331.33,748.94"/>
        <lane id=":1202681157_1_1" index="1" disallow="tram rail_urban rail rail_electric ship" speed="19.44" length="9.23" shape="1335.41,740.07 1328.99,746.76"/>
    </edge>
    <edge id=":1254209056_0" function="internal">
        <lane id=":1254209056_0_0" index="0" disallow="tram rail_urban rail rail_electric ship" speed="7.34" length="9.21" shape="1318.94,762.26 1317.72,764.09 1317.28,766.12 1317.62,768.35 1318.74,770.78"/>
    </edge>
    <edge id=":1254209056_1" function="internal">
        <lane id=":1254209056_1_0" index="0" disallow="tram rail_urban rail rail_electric ship" speed="19.44" length="13.02" shape="1318.94,762.26 1309.82,771.64"/>
        <lane id=":1254209056_1_1" index="1" disallow="tram rail_urban rail rail_electric ship" speed="19.44" length="13.02" shape="1316.60,760.08 1307.57,769.36"/>
    </edge>
    <edge id=":1254209056_3" function="internal">
        <lane id=":1254209056_3_0" index="0" disallow="tram rail_urban rail rail_electric ship" speed="26.86" length="13.64" shape="1309.48,760.17 1312.76,762.80 1314.84,764.83 1316.55,767.18 1318.74,770.78"/>
        <lane id=":1254209056_3_1" index="1" disallow="tram rail_urban rail rail_electric ship" speed="25.71" length="13.64" shape="1307.51,762.69 1310.52,765.11 1312.42,766.96 1313.98,769.12 1315.99,772.42"/>
    </edge>
    <edge id=":1254209056_5" function="internal">
        <lane id=":1254209056_5_0" index="0" disallow="tram rail_urban rail rail_electric ship" speed="5.87" length="7.85" shape="1307.51,762.69 1308.94,764.22 1309.42,765.84 1308.97,767.56 1307.57,769.36"/>
    </edge>
    <edge id=":1443923769_0" function="internal">
        <lane id=":1443923769_0_0" index="0" disallow="tram rail_urban rail rail_electric ship" speed="3.65" length="4.67" shape="1142.08,675.05 1143.00,673.93 1143.83,673.62 1144.59,674.10 1145.26,675.37"/>
    </edge>
    <edge id=":1443953610_0" function="internal">
        <lane id=":1443953610_0_0" index="0" disallow="tram rail_urban rail rail_electric ship" speed="3.65" length="4.67" shape="996.45,834.38 995.01,834.40 994.22,833.97 994.10,833.08 994.63,831.74"/>
    </edge>
    <edge id=":1616994421_0" function="internal">
        <lane id=":1616994421_0_0" index="0" disallow="tram rail_urban rail rail_electric ship" speed="13.89" length="0.44" shape="1099.14,672.06 1099.06,671.95 1099.01,671.88 1098.96,671.80 1098.89,671.69"/>
    </edge>
    <edge id=":1616994421_1" function="internal">
        <lane id=":1616994421_1_0" index="0" disallow="tram rail_urban rail rail_electric ship" speed="3.65" length="2.34" shape="1099.14,672.06 1099.06,670.62 1099.46,669.82"/>
    </edge>
    <edge id=":1616994421_4" function="internal">
        <lane id=":1616994421_4_0" index="0" disallow="tram rail_urban rail rail_electric ship" speed="3.65" length="2.34" shape="1099.46,669.82 1100.34,669.66 1101.70,670.14"/>
    </edge>
    <edge id=":1616994421_2" function="internal">
        <lane id=":1616994421_2_0" index="0" disallow="tram rail_urban rail rail_electric ship" speed="13.89" length="0.15" shape="1101.62,670.02 1101.64,670.05 1101.66,670.08 1101.67,670.10 1101.70,670.14"/>
    </edge>
    <edge id=":1616994421_3" function="internal">
        <lane id=":1616994421_3_0" index="0" disallow="tram rail_urban rail rail_electric ship" speed="3.65" length="2.34" shape="1101.62,670.02 1101.56,671.46 1101.09,672.22"/>
    </edge>
    <edge id=":1616994421_5" function="internal">
        <lane id=":1616994421_5_0" index="0" disallow="tram rail_urban rail rail_electric ship" speed="3.65" length="2.34" shape="1101.09,672.22 1100.20,672.30 1098.89,671.69"/>
    </edge>
    <edge id=":1616994456_0" function="internal">
        <lane id=":1616994456_0_0" index="0" disallow="tram rail_urban rail rail_electric ship" speed="3.65" length="4.67" shape="1062.37,616.02 1062.38,614.58 1062.83,613.80 1063.72,613.70 1065.05,614.26"/>
    </edge>
    <edge id=":321420554_0" function="internal">
        <lane id=":321420554_0_0" index="0" disallow="tram rail_urban rail rail_electric ship" speed="6.69" length="11.75" shape="984.19,704.62 984.17,701.24 985.28,699.00 987.52,697.88 990.89,697.89"/>
    </edge>
    <edge id=":321420554_1" function="internal">
        <lane id=":321420554_1_0" index="0" disallow="tram rail_urban rail rail_electric ship" speed="5.85" length="8.68" shape="984.19,704.62 984.33,702.68 985.41,701.44 987.45,700.90 990.43,701.06"/>
    </edge>
    <edge id=":321420554_2" function="internal">
        <lane id=":321420554_2_0" index="0" disallow="tram rail_urban rail rail_electric ship" speed="3.65" length="4.67" shape="984.19,704.62 984.81,703.31 985.54,702.80 986.39,703.07 987.36,704.14"/>
    </edge>
    <edge id=":321420556_0" function="internal">
        <lane id=":321420556_0_0" index="0" disallow="tram rail_urban rail rail_electric ship" speed="20.83" length="18.19" shape="1272.07,738.59 1277.20,739.27 1280.80,739.54 1284.30,739.06 1289.17,737.49"/>
        <lane id=":321420556_0_1" index="1" disallow="tram rail_urban rail rail_electric ship" speed="20.83" length="18.19" shape="1271.69,741.77 1277.27,742.49 1281.18,742.76 1284.99,742.21 1290.28,740.49"/>
    </edge>
    <edge id=":321420556_2" function="internal">
        <lane id=":321420556_2_0" index="0" disallow="tram rail_urban rail rail_electric ship" speed="19.28" length="18.70" shape="1271.69,741.77 1277.29,741.90 1281.35,741.55 1285.07,742.04 1289.63,744.70"/>
    </edge>
    <edge id=":321420556_3" function="internal">
        <lane id=":321420556_3_0" index="0" disallow="tram rail_urban rail rail_electric ship" speed="23.61" length="18.49" shape="1272.75,746.01 1276.88,742.40 1280.18,740.53 1283.87,739.27 1289.17,737.49"/>
        <lane id=":321420556_3_1" index="1" disallow="tram rail_urban rail rail_electric ship" speed="23.61" length="18.49" shape="1274.40,748.87 1278.40,745.35 1281.59,743.49 1285.15,742.23 1290.28,740.49"/>
    </edge>
    <edge id=":321420556_5" function="internal">
        <lane id=":321420556_5_0" index="0" disallow="tram rail_urban rail rail_electric ship" speed="8.58" length="14.81" shape="1274.40,748.87 1277.78,746.26 1281.12,745.12 1284.41,745.44 1287.66,747.22"/>
    </edge>
    <edge id=":367910708_0" function="internal">
        <lane id=":367910708_0_0" index="0" disallow="tram rail_urban rail rail_electric ship" speed="8.01" length="10.85" shape="1413.53,674.37 1410.45,673.22 1407.74,672.93 1405.41,673.51 1403.44,674.95"/>
    </edge>
    <edge id=":367910708_1" function="internal">
        <lane id=":367910708_1_0" index="0" disallow="tram rail_urban rail rail_electric ship" speed="3.65" length="4.67" shape="1413.53,674.37 1412.80,673.12 1412.79,672.23 1413.50,671.68 1414.92,671.49"/>
    </edge>
    <edge id=":367910708_2" function="internal">
        <lane id=":367910708_2_0" index="0" disallow="tram rail_urban rail rail_electric ship" speed="5.93" length="9.10" shape="1413.65,664.31 1412.11,666.44 1411.81,668.34 1412.75,670.02 1414.92,671.49"/>
    </edge>
    <edge id=":367910708_3" function="internal">
        <lane id=":367910708_3_0" index="0" disallow="tram rail_urban rail rail_electric ship" speed="19.44" length="14.75" shape="1413.65,664.31 1403.44,674.95"/>
        <lane id=":367910708_3_1" index="1" disallow="tram rail_urban rail rail_electric ship" speed="19.44" length="14.75" shape="1411.35,662.09 1401.12,672.74"/>
    </edge>
    <edge id=":367910721_0" function="internal">
        <lane id=":367910721_0_0" index="0" disallow="tram rail_urban rail rail_electric ship" speed="3.65" length="4.67" shape="820.55,1229.53 819.20,1230.03 818.32,1229.88 817.91,1229.09 817.97,1227.65"/>
    </edge>
    <edge id=":367910761_0" function="internal">
        <lane id=":367910761_0_0" index="0" disallow="tram rail_urban rail rail_electric ship" speed="3.65" length="4.67" shape="1537.63,730.87 1538.36,732.11 1538.37,733.01 1537.66,733.55 1536.23,733.75"/>
    </edge>
    <edge id=":443350001_0" function="internal">
        <lane id=":443350001_0_0" index="0" disallow="tram rail_urban rail rail_electric ship" speed="7.22" length="9.27" shape="1188.51,748.71 1188.07,746.40 1186.95,744.59 1185.17,743.29 1182.71,742.48"/>
    </edge>
    <edge id=":443350001_1" function="internal">
        <lane id=":443350001_1_0" index="0" disallow="tram rail_urban rail rail_electric ship" speed="13.89" length="13.95" shape="1188.51,748.71 1188.38,745.07 1188.52,741.64 1189.21,738.36 1190.75,735.19"/>
    </edge>
    <edge id=":443350001_2" function="internal">
        <lane id=":443350001_2_0" index="0" disallow="tram rail_urban rail rail_electric ship" speed="25.00" length="13.31" shape="1195.84,744.90 1182.71,742.48"/>
        <lane id=":443350001_2_1" index="1" disallow="tram rail_urban rail rail_electric ship" speed="25.00" length="13.31" shape="1196.39,741.74 1183.34,739.34"/>
    </edge>
    <edge id=":443350001_4" function="internal">
        <lane id=":443350001_4_0" index="0" disallow="tram rail_urban rail rail_electric ship" speed="6.25" length="10.84" shape="1196.39,741.74 1192.69,740.75 1190.51,739.33 1189.87,737.48 1190.75,735.19"/>
    </edge>
    <edge id=":443350001_5" function="internal">
        <lane id=":443350001_5_0" index="0" disallow="tram rail_urban rail rail_electric ship" speed="8.35" length="10.98" shape="1193.42,736.95 1191.83,738.56 1189.62,739.50 1186.79,739.76 1183.34,739.34"/>
    </edge>
    <edge id=":443350001_6" function="internal">
        <lane id=":443350001_6_0" index="0" disallow="tram rail_urban rail rail_electric ship" speed="3.65" length="4.67" shape="1193.42,736.95 1192.09,737.51 1191.21,737.41 1190.76,736.63 1190.75,735.19"/>
    </edge>
    <edge id=":4915234175_0" function="internal">
        <lane id=":4915234175_0_0" index="0" disallow="tram rail_urban rail rail_electric ship" speed="3.65" length="4.67" shape="1377.64,849.49 1377.74,850.93 1377.35,851.74 1376.47,851.91 1375.10,851.45"/>
    </edge>
    <edge id=":4915240300_0" function="internal">
        <lane id=":4915240300_0_0" index="0" disallow="tram rail_urban rail rail_electric ship" speed="8.08" length="10.83" shape="1377.58,711.97 1374.54,710.79 1371.84,710.47 1369.49,710.99 1367.48,712.37"/>
    </edge>
    <edge id=":4915240300_1" function="internal">
        <lane id=":4915240300_1_0" index="0" disallow="tram rail_urban rail rail_electric ship" speed="3.65" length="4.67" shape="1377.58,711.97 1376.87,710.72 1376.87,709.83 1377.58,709.29 1379.01,709.11"/>
    </edge>
    <edge id=":4915240300_2" function="internal">
        <lane id=":4915240300_2_0" index="0" disallow="tram rail_urban rail rail_electric ship" speed="5.96" length="9.09" shape="1377.75,701.89 1376.23,704.02 1375.94,705.93 1376.86,707.62 1379.01,709.11"/>
    </edge>
    <edge id=":4915240300_3" function="internal">
        <lane id=":4915240300_3_0" index="0" disallow="tram rail_urban rail rail_electric ship" speed="19.44" length="14.62" shape="1377.75,701.89 1367.48,712.37"/>
        <lane id=":4915240300_3_1" index="1" disallow="tram rail_urban rail rail_electric ship" speed="19.44" length="14.62" shape="1375.43,699.68 1365.24,710.09"/>
    </edge>
    <edge id=":4915240301_0" function="internal">
        <lane id=":4915240301_0_0" index="0" disallow="tram rail_urban rail rail_electric ship" speed="5.93" length="12.06" shape="1456.42,747.71 1459.44,749.70 1460.14,751.52 1458.52,753.15 1454.58,754.61"/>
    </edge>
    <edge id=":4915240301_1" function="internal">
        <lane id=":4915240301_1_0" index="0" disallow="tram rail_urban rail rail_electric ship" speed="3.65" length="4.67" shape="1456.42,747.71 1457.14,748.96 1457.14,749.86 1456.42,750.39 1454.99,750.57"/>
    </edge>
    <edge id=":5130287794_0" function="internal">
        <lane id=":5130287794_0_0" index="0" disallow="tram rail_urban rail rail_electric ship" speed="7.18" length="8.87" shape="990.22,711.60 987.95,710.99 986.22,709.84 985.03,708.13 984.38,705.87"/>
    </edge>
    <edge id=":5130287794_1" function="internal">
        <lane id=":5130287794_1_0" index="0" disallow="tram rail_urban rail rail_electric ship" speed="3.65" length="4.67" shape="987.54,705.40 986.93,706.70 986.20,707.22 985.35,706.94 984.38,705.87"/>
    </edge>
    <edge id=":5130287795_0" function="internal">
        <lane id=":5130287795_0_0" index="0" disallow="tram rail_urban rail rail_electric ship" speed="22.22" length="0.26" shape="1042.09,718.30 1041.88,718.27"/>
        <lane id=":5130287795_0_1" index="1" disallow="tram rail_urban rail rail_electric ship" speed="22.22" length="0.26" shape="1042.59,715.14 1042.29,715.10"/>
    </edge>
    <edge id=":5130287796_0" function="internal">
        <lane id=":5130287796_0_0" index="0" disallow="tram rail_urban rail rail_electric ship" speed="6.30" length="9.04" shape="1144.92,734.92 1142.41,734.78 1140.54,735.51 1139.31,737.09 1138.71,739.53"/>
    </edge>
    <edge id=":5130287796_1" function="internal">
        <lane id=":5130287796_1_0" index="0" disallow="tram rail_urban rail rail_electric ship" speed="22.22" length="14.91" shape="1144.92,734.92 1130.31,732.30"/>
        <lane id=":5130287796_1_1" index="1" disallow="tram rail_urban rail rail_electric ship" speed="22.22" length="14.91" shape="1145.55,731.78 1130.82,729.14"/>
    </edge>
    <edge id=":5130287796_3" function="internal">
        <lane id=":5130287796_3_0" index="0" disallow="tram rail_urban rail rail_electric ship" speed="7.23" length="10.61" shape="1145.55,731.78 1141.58,730.80 1138.79,729.67 1137.18,728.41 1136.75,727.00"/>
    </edge>
    <edge id=":5130287796_4" function="internal">
        <lane id=":5130287796_4_0" index="0" disallow="tram rail_urban rail rail_electric ship" speed="13.89" length="12.25" shape="1139.93,727.34 1138.71,739.53"/>
    </edge>
    <edge id=":5130287796_5" function="internal">
        <lane id=":5130287796_5_0" index="0" disallow="tram rail_urban rail rail_electric ship" speed="6.72" length="2.66" shape="1139.93,727.34 1139.24,728.65 1138.15,729.11"/>
    </edge>
    <edge id=":5130287796_6" function="internal">
        <lane id=":5130287796_6_0" index="0" disallow="tram rail_urban rail rail_electric ship" speed="3.65" length="2.34" shape="1139.93,727.34 1139.01,728.45 1138.17,728.76"/>
    </edge>
    <edge id=":5130287796_10" function="internal">
        <lane id=":5130287796_10_0" index="0" disallow="tram rail_urban rail rail_electric ship" speed="6.72" length="7.42" shape="1138.15,729.11 1137.48,729.38 1134.68,729.55 1130.82,729.14"/>
    </edge>
    <edge id=":5130287796_11" function="internal">
        <lane id=":5130287796_11_0" index="0" disallow="tram rail_urban rail rail_electric ship" speed="3.65" length="2.34" shape="1138.17,728.76 1137.42,728.28 1136.75,727.00"/>
    </edge>
    <edge id=":5130287796_7" function="internal">
        <lane id=":5130287796_7_0" index="0" disallow="tram rail_urban rail rail_electric ship" speed="6.89" length="9.76" shape="1135.53,739.23 1135.42,736.54 1134.51,734.49 1132.81,733.07 1130.31,732.30"/>
    </edge>
    <edge id=":5130287796_8" function="internal">
        <lane id=":5130287796_8_0" index="0" disallow="tram rail_urban rail rail_electric ship" speed="13.89" length="12.28" shape="1135.53,739.23 1136.75,727.00"/>
    </edge>
    <edge id=":5130287796_9" function="internal">
        <lane id=":5130287796_9_0" index="0" disallow="tram rail_urban rail rail_electric ship" speed="3.65" length="2.34" shape="1135.53,739.23 1136.44,738.11 1137.27,737.79"/>
    </edge>
    <edge id=":5130287796_12" function="internal">
        <lane id=":5130287796_12_0" index="0" disallow="tram rail_urban rail rail_electric ship" speed="3.65" length="2.34" shape="1137.27,737.79 1138.03,738.26 1138.71,739.53"/>
    </edge>
    <edge id=":5130287797_0" function="internal">
        <lane id=":5130287797_0_0" index="0" disallow="tram rail_urban rail rail_electric ship" speed="22.22" length="0.23" shape="1188.92,728.81 1188.92,728.82"/>
        <lane id=":5130287797_0_1" index="1" disallow="tram rail_urban rail rail_electric ship" speed="22.22" length="0.23" shape="1188.31,731.95 1188.41,731.97 1188.48,731.98 1188.55,731.99 1188.66,732.00"/>
    </edge>
    <edge id=":5340868713_0" function="internal">
        <lane id=":5340868713_0_0" index="0" disallow="tram rail_urban rail rail_electric ship" speed="22.22" length="9.98" shape="1189.10,728.83 1199.09,729.79"/>
        <lane id=":5340868713_0_1" index="1" disallow="tram rail_urban rail rail_electric ship" speed="22.22" length="9.98" shape="1188.83,732.02 1198.71,732.97"/>
    </edge>
    <edge id=":5340868713_2" function="internal">
        <lane id=":5340868713_2_0" index="0" disallow="tram rail_urban rail rail_electric ship" speed="5.55" length="8.68" shape="1188.83,732.02 1191.91,732.55 1193.72,733.52 1194.26,734.93 1193.53,736.78"/>
    </edge>
    <edge id=":5340868713_3" function="internal">
        <lane id=":5340868713_3_0" index="0" disallow="tram rail_urban rail rail_electric ship" speed="7.72" length="8.51" shape="1190.86,735.02 1192.03,733.85 1193.73,733.12 1195.96,732.82 1198.71,732.97"/>
    </edge>
    <edge id=":5340868713_4" function="internal">
        <lane id=":5340868713_4_0" index="0" disallow="tram rail_urban rail rail_electric ship" speed="3.65" length="4.67" shape="1190.86,735.02 1192.18,734.46 1193.07,734.56 1193.52,735.34 1193.53,736.78"/>
    </edge>
    <edge id=":5340868714_0" function="internal">
        <lane id=":5340868714_0_0" index="0" disallow="tram rail_urban rail rail_electric ship" speed="11.14" length="8.64" shape="1216.26,748.44 1213.82,748.20 1212.15,748.66 1210.54,749.62 1208.28,750.89"/>
    </edge>
    <edge id=":5340868714_1" function="internal">
        <lane id=":5340868714_1_0" index="0" disallow="tram rail_urban rail rail_electric ship" speed="27.78" length="8.71" shape="1216.26,748.44 1207.74,746.96"/>
        <lane id=":5340868714_1_1" index="1" disallow="tram rail_urban rail rail_electric ship" speed="27.78" length="8.71" shape="1216.93,745.31 1208.29,743.81"/>
    </edge>
    <edge id=":5396403858_0" function="internal">
        <lane id=":5396403858_0_0" index="0" disallow="tram rail_urban rail rail_electric ship" speed="7.25" length="5.11" shape="1320.15,785.49 1319.30,784.60 1318.27,783.94 1317.07,783.50 1315.71,783.29"/>
    </edge>
    <edge id=":5396403858_1" function="internal">
        <lane id=":5396403858_1_0" index="0" disallow="tram rail_urban rail rail_electric ship" speed="8.84" length="7.81" shape="1322.68,783.53 1321.36,782.14 1319.79,781.11 1317.98,780.43 1315.93,780.10"/>
    </edge>
    <edge id=":5396403858_2" function="internal">
        <lane id=":5396403858_2_0" index="0" disallow="tram rail_urban rail rail_electric ship" speed="3.65" length="2.04" shape="1322.68,783.53 1322.58,782.09 1322.84,781.55"/>
    </edge>
    <edge id=":5396403858_6" function="internal">
        <lane id=":5396403858_6_0" index="0" disallow="tram rail_urban rail rail_electric ship" speed="3.65" length="2.63" shape="1322.84,781.55 1322.97,781.29 1323.85,781.11 1325.22,781.57"/>
    </edge>
    <edge id=":5396403858_3" function="internal">
        <lane id=":5396403858_3_0" index="0" disallow="tram rail_urban rail rail_electric ship" speed="27.78" length="8.70" shape="1321.03,774.62 1322.63,776.46 1324.24,777.23 1325.92,777.95 1327.75,779.62"/>
        <lane id=":5396403858_3_1" index="1" disallow="tram rail_urban rail rail_electric ship" speed="27.78" length="8.70" shape="1318.28,776.26 1319.93,778.19 1321.59,779.03 1323.32,779.81 1325.22,781.57"/>
    </edge>
    <edge id=":5396403858_5" function="internal">
        <lane id=":5396403858_5_0" index="0" disallow="tram rail_urban rail rail_electric ship" speed="4.78" length="2.99" shape="1318.28,776.26 1319.07,778.07 1318.96,779.09"/>
    </edge>
    <edge id=":5396403858_7" function="internal">
        <lane id=":5396403858_7_0" index="0" disallow="tram rail_urban rail rail_electric ship" speed="4.78" length="3.44" shape="1318.96,779.09 1318.94,779.31 1317.89,779.99 1315.93,780.10"/>
    </edge>
    <edge id=":5655107166_0" function="internal">
        <lane id=":5655107166_0_0" index="0" disallow="tram rail_urban rail rail_electric ship" speed="13.89" length="0.20" shape="1096.67,668.08 1096.57,667.92"/>
    </edge>
    <edge id=":5655107166_1" function="internal">
        <lane id=":5655107166_1_0" index="0" disallow="tram rail_urban rail rail_electric ship" speed="3.65" length="2.34" shape="1096.67,668.08 1096.73,666.64 1097.20,665.88"/>
    </edge>
    <edge id=":5655107166_4" function="internal">
        <lane id=":5655107166_4_0" index="0" disallow="tram rail_urban rail rail_electric ship" speed="3.65" length="2.34" shape="1097.20,665.88 1098.09,665.81 1099.40,666.41"/>
    </edge>
    <edge id=":5655107166_2" function="internal">
        <lane id=":5655107166_2_0" index="0" disallow="tram rail_urban rail rail_electric ship" speed="13.89" length="0.30" shape="1099.24,666.16 1099.40,666.41"/>
    </edge>
    <edge id=":5655107166_3" function="internal">
        <lane id=":5655107166_3_0" index="0" disallow="tram rail_urban rail rail_electric ship" speed="3.65" length="2.34" shape="1099.24,666.16 1099.23,667.60 1098.78,668.37"/>
    </edge>
    <edge id=":5655107166_5" function="internal">
        <lane id=":5655107166_5_0" index="0" disallow="tram rail_urban rail rail_electric ship" speed="3.65" length="2.34" shape="1098.78,668.37 1097.89,668.48 1096.57,667.92"/>
    </edge>
    <edge id=":665706084_0" function="internal">
        <lane id=":665706084_0_0" index="0" disallow="tram rail_urban rail rail_electric ship" speed="7.81" length="13.37" shape="1141.68,710.46 1141.56,715.12 1142.27,718.53 1143.82,720.71 1146.20,721.64"/>
    </edge>
    <edge id=":665706084_1" function="internal">
        <lane id=":665706084_1_0" index="0" disallow="tram rail_urban rail rail_electric ship" speed="13.89" length="16.78" shape="1141.68,710.46 1139.95,727.15"/>
    </edge>
    <edge id=":665706084_2" function="internal">
        <lane id=":665706084_2_0" index="0" disallow="tram rail_urban rail rail_electric ship" speed="7.46" length="7.98" shape="1141.68,710.46 1140.35,716.74 1139.30,717.90"/>
    </edge>
    <edge id=":665706084_3" function="internal">
        <lane id=":665706084_3_0" index="0" disallow="tram rail_urban rail rail_electric ship" speed="3.65" length="2.34" shape="1141.68,710.46 1140.76,711.57 1139.93,711.89"/>
    </edge>
    <edge id=":665706084_17" function="internal">
        <lane id=":665706084_17_0" index="0" disallow="tram rail_urban rail rail_electric ship" speed="7.46" length="11.89" shape="1139.30,717.90 1138.00,719.36 1134.64,718.32 1130.26,713.63"/>
    </edge>
    <edge id=":665706084_18" function="internal">
        <lane id=":665706084_18_0" index="0" disallow="tram rail_urban rail rail_electric ship" speed="3.65" length="2.34" shape="1139.93,711.89 1139.17,711.41 1138.50,710.13"/>
    </edge>
    <edge id=":665706084_4" function="internal">
        <lane id=":665706084_4_0" index="0" disallow="tram rail_urban rail rail_electric ship" speed="5.46" length="9.88" shape="1132.82,711.71 1135.00,714.04 1136.67,714.56 1137.83,713.25 1138.50,710.13"/>
    </edge>
    <edge id=":665706084_5" function="internal">
        <lane id=":665706084_5_0" index="0" disallow="tram rail_urban rail rail_electric ship" speed="13.18" length="17.08" shape="1132.82,711.71 1136.24,715.78 1139.61,718.80 1142.93,720.75 1146.20,721.64"/>
    </edge>
    <edge id=":665706084_6" function="internal">