

<routes xmlns:xsi="http://www.w3.org/2001/XMLSchema-instance" xsi:noNamespaceSchemaLocation="http://sumo.dlr.de/xsd/routes_file.xsd">
    
    <vType accel="1.0" decel="5.0" id="Car" length="5.0" maxSpeed="50.0" sigma="0.0"/>
    <vType accel="1.0" decel="5.0" id="Bus" length="10.0" maxSpeed="10.0" sigma="0.0"/>
    
    <route id="route_0" edges="32695337#3 32695337#4 32695337#5 32695337#6 561109442 527769689 81460383#0 81460383#1 527769699#0 527769699#1 527769699#2" color="blue"/>
    <route id="route_1" edges="32695337#3 32695337#4 32695337#5 32695337#6 561109442 527769688 -537198009#2 -537198009#1" color="blue"/>
    
    <route id="route_2" edges="537198006#0 537198006#1 537198006#2 130889358 130889390#2 130889390#3" color="blue"/>
   
    <route id="route_3" edges="32695337#3 32695337#4 32695337#5 32695337#6 559553102 -553265819#1" color="blue"/>
    <route id="route_4" edges="32695337#3 32695337#4 32695337#5 32695337#6 561109442 527769689 500478327#0 53010953#0" color="blue"/>
    <route id="route_5" edges="32695337#3 32695337#4 32695337#5 32695337#6 561109442 527769689 81460383#0 81460383#1 527769699#0 -527769693 -52325582#6 -52325582#5 -52325582#4" color="blue"/>
    <route id="route_6" edges="32695337#3 32695337#4 32695337#5 32695337#6 561109442 527769689 81460383#0 553272121 -515622705#2" color="blue"/>
    <route id="route_7" edges="32695337#3 32695337#4 32695337#5 32695337#6 561109442 527769689 81460383#0 81460383#1 527769699#0 53138363#0" color="blue"/>
    <route id="route_10" edges="537198009#1 537198009#2 240723858 81460383#0 553272121 -515622705#2" color="blue"/>
    <route id="route_11" edges="537198009#1 537198009#2 240723858 81460383#0 81460383#1 527769699#0 -527769693 -52325582#6 -52325582#5 -52325582#4" color="blue"/>
    <route id="route_12" edges="537198009#1 537198009#2 240723858 500478327#0 500478327#1 559553102 -553265819#1" color="blue"/>
    
    <!--Rutas Jonnathan-->
    <route id="route_13" edges="553265819#1 559553100 527769688 -537198009#2 -537198009#1" color="blue"/>
    <route id="route_14" edges="553265819#1 559553100 527769689 81460383#0 553272121 -515622705#2" color="blue"/>
    <route id="route_15" edges="553265819#1 559553100 527769689 81460383#0 81460383#1 527769699#0 53138363#0" color="blue"/>
    <route id="route_16" edges="553265819#1 559553100 527769689 81460383#0 81460383#1 527769699#0 527769699#1 527769699#2" color="blue"/>
    <route id="route_17" edges="553265819#1 559553100 527769689 81460383#0 81460383#1 527769699#0 -527769693 -52325582#6 -52325582#5 -52325582#4" color="blue"/>
    <route id="route_18" edges="553265819#1 559553100 527769689 81460383#0 81460383#1 527769699#0 -527769693 148619329#0" color="blue"/>
    <route id="route_19" edges="553265819#1 559553100 527769689 500478327#0 53010953#0" color="blue"/>
    
    <route id="route_8" edges="537198009#1 537198009#2 240723858 500478327#0 53010953#0" color="blue"/>
    <route id="route_9" edges="537198009#1 537198009#2 240723858 81460383#0 81460383#1 527769699#0 527769699#1 527769699#2" color="blue"/>
    
    <route id="route_20" edges="32695342#1 32695337#6 561109442 527769688 -537198009#2 -537198009#1" color="white"/>
    <route id="route_21" edges="-167342552 32695337#5 32695337#6 561109442 527769689 81460383#0 81460383#1 527769699#0 527769699#1 527769699#2" color="red"/>
    <route id="route_22" edges="37545133 32695337#4 32695337#5 32695337#6 561109442 527769689 81460383#0 81460383#1 527769699#0 -527769693 -52325582#6 -52325582#5 -52325582#4" color="yellow"/>
    <route id="route_23" edges="120392570#1 120392570#2 109595997#0 109595997#1 53010953#0" color="blue"/>
    <route id="route_24" edges="120392570#1 -52325582#6 -52325582#5 -52325582#4" color="blue"/>
    <route id="route_25" edges="120392570#1 120392570#2 109595997#0 109595997#1 500478327#1 559553102 -553265819#1" color="blue"/>
    <route id="route_26" edges="120392570#1 120392570#2 109595997#0 109595997#1 500478327#1 561109442 527769688 -537198009#2 -537198009#1" color="blue"/>
    <route id="route_27" edges="120392570#1 120392570#2 109595997#0 109595997#1 500478327#1 561109442 527769689 81460383#0 81460383#1 527769699#0 527769699#1 527769699#2" color="blue"/>
    
  <!--AUTOS -->
        
    <vehicle id="vehicle_001" type="Bus" depart="1" route="route_0" color="green"/>
    
    <vehicle id="vehicle_002" type="Car" depart="2" route="route_0" color="white"/>
    <vehicle id="vehicle_003" type="Car" depart="3" route="route_0" color="yellow"/>
    <vehicle id="vehicle_004" type="Car" depart="4" route="route_0" color="white"/>
    <vehicle id="vehicle_005" type="Car" depart="5" route="route_0" color="white"/>
    <vehicle id="vehicle_006" type="Car" depart="6" route="route_0" color="white"/>
    <vehicle id="vehicle_007" type="Car" depart="7" route="route_0" color="yellow"/>
    <vehicle id="vehicle_008" type="Car" depart="8" route="route_0" color="white"/>
    <vehicle id="vehicle_009" type="Car" depart="9" route="route_0" color="yellow"/>
    <vehicle id="vehicle_010" type="Car" depart="10" route="route_0" color="white"/>
    <vehicle id="vehicle_101" type="Car" depart="010" route="route_8" color="white"/>
    <vehicle id="vehicle_011" type="Car" depart="11" route="route_0" color="yellow"/>

    <vehicle id="vehicle_012" type="Car" depart="12" route="route_1" color="white"/>
    <vehicle id="vehicle_013" type="Car" depart="13" route="route_1" color="yellow"/>
    <vehicle id="vehicle_014" type="Car" depart="14" route="route_1" color="white"/>
    <vehicle id="vehicle_015" type="Car" depart="15" route="route_1" color="white"/>
    <vehicle id="vehicle_016" type="Car" depart="16" route="route_1" color="yellow"/>
    <vehicle id="vehicle_017" type="Car" depart="17" route="route_1" color="white"/>
    <vehicle id="vehicle_018" type="Car" depart="18" route="route_1" color="yellow"/>
    <vehicle id="vehicle_019" type="Car" depart="19" route="route_1" color="white"/>
    <vehicle id="vehicle_020" type="Car" depart="20" route="route_1" color="white"/>
    <vehicle id="vehicle_021" type="Car" depart="21" route="route_1" color="white"/>
    <vehicle id="vehicle_102" type="Car" depart="021" route="route_8" color="white"/>
    <vehicle id="vehicle_022" type="Car" depart="22" route="route_1" color="yellow"/>
    <vehicle id="vehicle_023" type="Car" depart="23" route="route_1" color="white"/>
    <vehicle id="vehicle_024" type="Car" depart="24" route="route_1" color="white"/>
    
    <vehicle id="vehicle_025" type="Car" depart="25" route="route_0" color="white"/>
    <vehicle id="vehicle_026" type="Car" depart="26" route="route_0" color="white"/>
    <vehicle id="vehicle_027" type="Car" depart="27" route="route_0" color="white"/>
    
    <vehicle id="vehicle_028" type="Car" depart="28" route="route_5" color="yellow"/>
    <vehicle id="vehicle_029" type="Car" depart="29" route="route_5" color="yellow"/>
    <vehicle id="vehicle_030" type="Car" depart="30" route="route_5" color="white"/>
    <vehicle id="vehicle_031" type="Car" depart="31" route="route_5" color="white"/>
    <vehicle id="vehicle_032" type="Car" depart="32" route="route_5" color="white"/>
    <vehicle id="vehicle_103" type="Car" depart="032" route="route_8" color="yellow"/>
    <vehicle id="vehicle_033" type="Car" depart="33" route="route_5" color="white"/>
    <vehicle id="vehicle_034" type="Car" depart="34" route="route_5" color="yellow"/>
    <vehicle id="vehicle_035" type="Car" depart="35" route="route_5" color="white"/>
    
    <vehicle id="vehicle_036" type="Car" depart="36" route="route_4" color="white"/>
    <vehicle id="vehicle_037" type="Car" depart="37" route="route_4" color="white"/>
    <vehicle id="vehicle_038" type="Car" depart="38" route="route_4" color="white"/>
    <vehicle id="vehicle_039" type="Car" depart="39" route="route_4" color="yellow"/>
    <vehicle id="vehicle_040" type="Car" depart="40" route="route_4" color="white"/>
    <vehicle id="vehicle_041" type="Car" depart="41" route="route_4" color="yellow"/>
    <vehicle id="vehicle_042" type="Car" depart="42" route="route_4" color="white"/>
    <vehicle id="vehicle_043" type="Car" depart="43" route="route_4" color="white"/>
    <vehicle id="vehicle_104" type="Car" depart="043" route="route_8" color="white"/>
    <vehicle id="vehicle_044" type="Car" depart="44" route="route_4" color="yellow"/>
    <vehicle id="vehicle_045" type="Car" depart="45" route="route_4" color="white"/>
    
    <vehicle id="vehicle_046" type="Car" depart="46" route="route_4" color="white"/>
    <vehicle id="vehicle_047" type="Car" depart="47" route="route_4" color="white"/>
    <vehicle id="vehicle_048" type="Car" depart="48" route="route_4" color="white"/>
    <vehicle id="vehicle_049" type="Car" depart="49" route="route_4" color="yellow"/>
    <vehicle id="vehicle_050" type="Car" depart="50" route="route_4" color="yellow"/>
    <vehicle id="vehicle_051" type="Car" depart="51" route="route_4" color="white"/>
    <vehicle id="vehicle_052" type="Car" depart="52" route="route_4" color="white"/>
    <vehicle id="vehicle_053" type="Car" depart="53" route="route_4" color="yellow"/>
    
    <vehicle id="vehicle_054" type="Car" depart="54" route="route_3" color="white"/>
    <vehicle id="vehicle_055" type="Car" depart="55" route="route_3" color="white"/>
    <vehicle id="vehicle_056" type="Car" depart="56" route="route_3" color="yellow"/>
    <vehicle id="vehicle_057" type="Car" depart="57" route="route_3" color="white"/>
    <vehicle id="vehicle_058" type="Car" depart="58" route="route_3" color="white"/>
    <vehicle id="vehicle_059" type="Car" depart="59" route="route_3" color="yellow"/>
    <vehicle id="vehicle_060" type="Car" depart="60" route="route_3" color="white"/>
    <vehicle id="vehicle_061" type="Car" depart="61" route="route_3" color="white"/>
    <vehicle id="vehicle_062" type="Car" depart="62" route="route_3" color="yellow"/>
    
    <vehicle id="vehicle_063" type="Car" depart="63" route="route_6" color="white"/>
    <vehicle id="vehicle_064" type="Car" depart="64" route="route_6" color="yellow"/>
    <vehicle id="vehicle_153" type="Car" depart="064" route="route_8" color="white"/>
    <vehicle id="vehicle_065" type="Car" depart="65" route="route_6" color="white"/>
    <vehicle id="vehicle_066" type="Car" depart="66" route="route_6" color="white"/>
    <vehicle id="vehicle_067" type="Car" depart="67" route="route_6" color="white"/>
    <vehicle id="vehicle_068" type="Car" depart="68" route="route_6" color="yellow"/>
    <vehicle id="vehicle_069" type="Car" depart="69" route="route_6" color="white"/>
    <vehicle id="vehicle_070" type="Car" depart="70" route="route_6" color="white"/>
    <vehicle id="vehicle_071" type="Car" depart="71" route="route_6" color="yellow"/>
    <vehicle id="vehicle_072" type="Car" depart="72" route="route_6" color="white"/>
    
    <vehicle id="vehicle_073" type="Car" depart="73" route="route_2" color="white"/>
    <vehicle id="vehicle_074" type="Car" depart="74" route="route_2" color="white"/>
    <vehicle id="vehicle_075" type="Car" depart="75" route="route_2" color="yellow"/>
    <vehicle id="vehicle_105" type="Car" depart="075" route="route_8" color="white"/>
    <vehicle id="vehicle_076" type="Car" depart="76" route="route_0" color="white"/>
    <vehicle id="vehicle_077" type="Car" depart="77" route="route_0" color="white"/>
    <vehicle id="vehicle_078" type="Car" depart="78" route="route_0" color="yellow"/>
    <vehicle id="vehicle_079" type="Car" depart="79" route="route_0" color="yellow"/>
    <vehicle id="vehicle_080" type="Car" depart="80" route="route_0" color="white"/>
    
    <vehicle id="vehicle_081" type="Car" depart="81" route="route_2" color="yellow"/>
    <vehicle id="vehicle_082" type="Car" depart="82" route="route_2" color="white"/>
    <vehicle id="vehicle_083" type="Car" depart="83" route="route_2" color="white"/>
    <vehicle id="vehicle_084" type="Car" depart="84" route="route_2" color="yellow"/>
    <vehicle id="vehicle_085" type="Car" depart="85" route="route_2" color="white"/>
    <vehicle id="vehicle_086" type="Car" depart="86" route="route_2" color="white"/>
    <vehicle id="vehicle_106" type="Car" depart="086" route="route_9" color="yellow"/>
    <vehicle id="vehicle_087" type="Car" depart="87" route="route_2" color="yellow"/>
    <vehicle id="vehicle_088" type="Car" depart="88" route="route_2" color="white"/>
    
    <vehicle id="vehicle_089" type="Car" depart="89" route="route_6" color="white"/>
    <vehicle id="vehicle_090" type="Car" depart="90" route="route_6" color="yellow"/>
    <vehicle id="vehicle_091" type="Car" depart="91" route="route_6" color="white"/>
    <vehicle id="vehicle_092" type="Car" depart="92" route="route_6" color="white"/>
    <vehicle id="vehicle_093" type="Car" depart="93" route="route_6" color="yellow"/>
    <vehicle id="vehicle_094" type="Car" depart="94" route="route_6" color="white"/>
    <vehicle id="vehicle_095" type="Car" depart="95" route="route_6" color="white"/>
    <vehicle id="vehicle_096" type="Car" depart="96" route="route_6" color="yellow"/>
    <vehicle id="vehicle_097" type="Car" depart="97" route="route_6" color="yellow"/>
    <vehicle id="vehicle_107" type="Car" depart="097" route="route_8" color="yellow"/>
    <vehicle id="vehicle_098" type="Car" depart="98" route="route_7" color="yellow"/>
    <vehicle id="vehicle_099" type="Car" depart="99" route="route_7" color="white"/>
    <vehicle id="vehicle_100" type="Bus" depart="100" route="route_1" color="green"/>
    
    <vehicle id="vehicle_400" type="Car" depart="100" route="route_7" color="white"/>
    <vehicle id="vehicle_401" type="Car" depart="101" route="route_7" color="white"/>
    <vehicle id="vehicle_402" type="Car" depart="102" route="route_7" color="white"/>
    <vehicle id="vehicle_403" type="Car" depart="103" route="route_7" color="white"/>
    <vehicle id="vehicle_404" type="Car" depart="104" route="route_7" color="yellow"/>
    <vehicle id="vehicle_405" type="Car" depart="105" route="route_7" color="white"/>
    <vehicle id="vehicle_406" type="Car" depart="106" route="route_7" color="white"/>
    <vehicle id="vehicle_407" type="Car" depart="107" route="route_7" color="yellow"/>
    <vehicle id="vehicle_408" type="Car" depart="108" route="route_7" color="white"/>
    <vehicle id="vehicle_108" type="Bus" depart="108" route="route_8" color="green"/> 
    <vehicle id="vehicle_409" type="Car" depart="109" route="route_7" color="white"/>
    <vehicle id="vehicle_410" type="Car" depart="110" route="route_7" color="yellow"/>
    <vehicle id="vehicle_411" type="Car" depart="111" route="route_7" color="white"/>
    
    <vehicle id="vehicle_412" type="Car" depart="112" route="route_0" color="white"/>
    <vehicle id="vehicle_413" type="Car" depart="113" route="route_0" color="yellow"/>
    <vehicle id="vehicle_414" type="Car" depart="114" route="route_0" color="white"/>
    <vehicle id="vehicle_415" type="Car" depart="115" route="route_0" color="white"/>
    <vehicle id="vehicle_416" type="Car" depart="116" route="route_0" color="yellow"/>
    <vehicle id="vehicle_417" type="Car" depart="117" route="route_0" color="yellow"/>
    <vehicle id="vehicle_418" type="Car" depart="118" route="route_0" color="white"/>
    <vehicle id="vehicle_419" type="Car" depart="119" route="route_0" color="white"/>
    <vehicle id="vehicle_109" type="Car" depart="119" route="route_8" color="white"/>
    <vehicle id="vehicle_420" type="Car" depart="120" route="route_0" color="yellow"/>
    <vehicle id="vehicle_110" type="Car" depart="120" route="route_8" color="yellow"/>
    <vehicle id="vehicle_421" type="Car" depart="121" route="route_0" color="white"/>
    <vehicle id="vehicle_422" type="Car" depart="122" route="route_0" color="white"/>
    
    <vehicle id="vehicle_423" type="Car" depart="123" route="route_5" color="white"/>
    <vehicle id="vehicle_424" type="Car" depart="124" route="route_5" color="yellow"/>
    <vehicle id="vehicle_425" type="Car" depart="125" route="route_5" color="yellow"/>
    <vehicle id="vehicle_426" type="Car" depart="126" route="route_5" color="white"/>
    <vehicle id="vehicle_427" type="Car" depart="127" route="route_5" color="white"/>
    
    <vehicle id="vehicle_428" type="Car" depart="128" route="route_2" color="white"/>
    <vehicle id="vehicle_429" type="Car" depart="129" route="route_2" color="white"/>
    <vehicle id="vehicle_111" type="Car" depart="130" route="route_8" color="white"/>
    <vehicle id="vehicle_430" type="Car" depart="130" route="route_6" color="white"/>
    <vehicle id="vehicle_431" type="Car" depart="131" route="route_6" color="white"/>
    <vehicle id="vehicle_432" type="Car" depart="132" route="route_6" color="yellow"/>
    <vehicle id="vehicle_433" type="Car" depart="133" route="route_6" color="white"/>
    <vehicle id="vehicle_434" type="Car" depart="134" route="route_6" color="white"/>
    <vehicle id="vehicle_435" type="Car" depart="135" route="route_6" color="yellow"/>
    <vehicle id="vehicle_436" type="Car" depart="136" route="route_6" color="white"/>
    <vehicle id="vehicle_437" type="Car" depart="137" route="route_6" color="yellow"/>
    <vehicle id="vehicle_438" type="Car" depart="138" route="route_6" color="white"/>
    
    <vehicle id="vehicle_439" type="Car" depart="139" route="route_20" color="yellow"/>
    <vehicle id="vehicle_440" type="Car" depart="140" route="route_20" color="white"/>
    <vehicle id="vehicle_441" type="Car" depart="141" route="route_20" color="white"/>
    <vehicle id="vehicle_112" type="Car" depart="141" route="route_8" color="yellow"/>
    <vehicle id="vehicle_442" type="Car" depart="142" route="route_20" color="white"/>
    <vehicle id="vehicle_443" type="Car" depart="143" route="route_20" color="yellow"/>
    <vehicle id="vehicle_149" type="Car" depart="143" route="route_8" color="white"/>
    <vehicle id="vehicle_444" type="Car" depart="144" route="route_20" color="white"/>
    
    <vehicle id="vehicle_445" type="Car" depart="145" route="route_1" color="yellow"/>
    <vehicle id="vehicle_446" type="Car" depart="146" route="route_1" color="white"/>
    <vehicle id="vehicle_447" type="Car" depart="147" route="route_1" color="white"/>
    <vehicle id="vehicle_448" type="Car" depart="148" route="route_1" color="yellow"/>
    <vehicle id="vehicle_449" type="Car" depart="149" route="route_1" color="white"/>
    <vehicle id="vehicle_450" type="Car" depart="150" route="route_1" color="white"/>
    <vehicle id="vehicle_451" type="Car" depart="151" route="route_1" color="white"/>
    <vehicle id="vehicle_452" type="Car" depart="152" route="route_1" color="yellow"/>
    <vehicle id="vehicle_113" type="Car" depart="152" route="route_11" color="yellow"/>
    <vehicle id="vehicle_453" type="Car" depart="153" route="route_1" color="white"/>
    <vehicle id="vehicle_454" type="Car" depart="154" route="route_1" color="white"/>
    <vehicle id="vehicle_455" type="Car" depart="155" route="route_1" color="white"/>
    <vehicle id="vehicle_456" type="Car" depart="156" route="route_1" color="white"/>
    <vehicle id="vehicle_457" type="Car" depart="157" route="route_1" color="white"/>
    <vehicle id="vehicle_458" type="Car" depart="158" route="route_1" color="yellow"/>
    <vehicle id="vehicle_459" type="Car" depart="159" route="route_1" color="white"/>
    <vehicle id="vehicle_460" type="Car" depart="160" route="route_1" color="white"/>
    <vehicle id="vehicle_461" type="Car" depart="161" route="route_1" color="white"/>
    <vehicle id="vehicle_462" type="Car" depart="162" route="route_1" color="yellow"/>
    <vehicle id="vehicle_463" type="Car" depart="163" route="route_1" color="yellow"/>
    <vehicle id="vehicle_114" type="Car" depart="163" route="route_8" color="white"/>
    <vehicle id="vehicle_464" type="Car" depart="164" route="route_1" color="white"/>
    
    <vehicle id="vehicle_465" type="Car" depart="165" route="route_3" color="yellow"/>
    <vehicle id="vehicle_466" type="Car" depart="166" route="route_3" color="yellow"/>
    <vehicle id="vehicle_467" type="Car" depart="167" route="route_3" color="white"/>
    <vehicle id="vehicle_468" type="Car" depart="168" route="route_3" color="white"/>
    <vehicle id="vehicle_469" type="Car" depart="169" route="route_3" color="white"/>
    <vehicle id="vehicle_470" type="Car" depart="170" route="route_3" color="yellow"/>
    <vehicle id="vehicle_471" type="Car" depart="171" route="route_3" color="white"/>
    <vehicle id="vehicle_472" type="Car" depart="172" route="route_3" color="yellow"/>
    <vehicle id="vehicle_473" type="Car" depart="173" route="route_3" color="white"/>
    <vehicle id="vehicle_474" type="Car" depart="174" route="route_3" color="yellow"/>
    <vehicle id="vehicle_115" type="Car" depart="174" route="route_8" color="white"/>
    <vehicle id="vehicle_475" type="Car" depart="175" route="route_3" color="white"/>
    <vehicle id="vehicle_476" type="Car" depart="176" route="route_3" color="white"/>
    <vehicle id="vehicle_477" type="Car" depart="177" route="route_3" color="yellow"/>
    
    <vehicle id="vehicle_478" type="Car" depart="178" route="route_0" color="white"/>
    <vehicle id="vehicle_479" type="Car" depart="179" route="route_0" color="white"/>
    <vehicle id="vehicle_480" type="Car" depart="180" route="route_0" color="yellow"/>
    <vehicle id="vehicle_481" type="Car" depart="181" route="route_0" color="yellow"/>
    <vehicle id="vehicle_482" type="Car" depart="182" route="route_0" color="white"/>
    <vehicle id="vehicle_483" type="Car" depart="183" route="route_0" color="white"/>
    
    <vehicle id="vehicle_484" type="Car" depart="184" route="route_5" color="white"/>
    <vehicle id="vehicle_485" type="Car" depart="185" route="route_5" color="white"/>
    <vehicle id="vehicle_116" type="Car" depart="185" route="route_8" color="yellow"/>
    <vehicle id="vehicle_486" type="Car" depart="186" route="route_0" color="white"/>
    <vehicle id="vehicle_487" type="Car" depart="187" route="route_0" color="white"/>
    <vehicle id="vehicle_488" type="Car" depart="188" route="route_0" color="yellow"/>
    <vehicle id="vehicle_489" type="Car" depart="189" route="route_0" color="white"/>
    <vehicle id="vehicle_490" type="Car" depart="190" route="route_0" color="white"/>
    <vehicle id="vehicle_491" type="Car" depart="191" route="route_0" color="white"/>
    <vehicle id="vehicle_492" type="Car" depart="192" route="route_0" color="white"/>
    <vehicle id="vehicle_493" type="Car" depart="193" route="route_0" color="yellow"/>
    <vehicle id="vehicle_494" type="Car" depart="194" route="route_0" color="white"/>
    <vehicle id="vehicle_495" type="Car" depart="195" route="route_0" color="white"/>
    <vehicle id="vehicle_496" type="Car" depart="196" route="route_0" color="white"/>
    <vehicle id="vehicle_117" type="Car" depart="196" route="route_8" color="yellow"/>
    <vehicle id="vehicle_497" type="Car" depart="197" route="route_0" color="yellow"/>
    <vehicle id="vehicle_498" type="Car" depart="198" route="route_0" color="yellow"/>
    <vehicle id="vehicle_499" type="Car" depart="199" route="route_0" color="white"/>
    <vehicle id="vehicle_500" type="Car" depart="200" route="route_0" color="white"/>
    <vehicle id="vehicle_800" type="Bus" depart="200" route="route_0" color="green"/>
    <vehicle id="vehicle_501" type="Car" depart="201" route="route_0" color="yellow"/>
    <vehicle id="vehicle_502" type="Car" depart="202" route="route_0" color="yellow"/>
    <vehicle id="vehicle_503" type="Car" depart="203" route="route_0" color="yellow"/>
    <vehicle id="vehicle_504" type="Car" depart="204" route="route_0" color="white"/>

    <vehicle id="vehicle_505" type="Car" depart="205" route="route_1" color="yellow"/>
    <vehicle id="vehicle_506" type="Car" depart="206" route="route_1" color="white"/>
    <vehicle id="vehicle_118" type="Car" depart="206" route="route_8" color="white"/>
    <vehicle id="vehicle_507" type="Car" depart="207" route="route_1" color="white"/>
    <vehicle id="vehicle_508" type="Car" depart="208" route="route_1" color="white"/>
    <vehicle id="vehicle_509" type="Car" depart="209" route="route_1" color="yellow"/>
    <vehicle id="vehicle_510" type="Car" depart="210" route="route_1" color="white"/>
    <vehicle id="vehicle_511" type="Car" depart="211" route="route_1" color="white"/>
    <vehicle id="vehicle_512" type="Car" depart="212" route="route_1" color="yellow"/>
    <vehicle id="vehicle_513" type="Car" depart="213" route="route_1" color="white"/>
    <vehicle id="vehicle_514" type="Car" depart="214" route="route_1" color="yellow"/>
    <vehicle id="vehicle_515" type="Car" depart="215" route="route_1" color="white"/>
    
    <vehicle id="vehicle_516" type="Car" depart="216" route="route_6" color="white"/>
    <vehicle id="vehicle_119" type="Car" depart="217" route="route_8" color="white"/>
    <vehicle id="vehicle_517" type="Car" depart="217" route="route_6" color="yellow"/>
    <vehicle id="vehicle_518" type="Car" depart="218" route="route_6" color="white"/>
    <vehicle id="vehicle_519" type="Car" depart="219" route="route_6" color="white"/>
    <vehicle id="vehicle_520" type="Car" depart="220" route="route_6" color="white"/>
    <vehicle id="vehicle_521" type="Car" depart="221" route="route_6" color="yellow"/>
    <vehicle id="vehicle_522" type="Car" depart="222" route="route_6" color="white"/>
    <vehicle id="vehicle_523" type="Car" depart="223" route="route_6" color="white"/>
    <vehicle id="vehicle_524" type="Car" depart="224" route="route_6" color="white"/>
    <vehicle id="vehicle_525" type="Car" depart="225" route="route_6" color="yellow"/>
    <vehicle id="vehicle_526" type="Car" depart="226" route="route_6" color="white"/>
    <vehicle id="vehicle_527" type="Car" depart="227" route="route_6" color="white"/>
    <vehicle id="vehicle_528" type="Car" depart="228" route="route_6" color="yellow"/>
    <vehicle id="vehicle_120" type="Car" depart="228" route="route_9" color="yellow"/>
    <vehicle id="vehicle_529" type="Car" depart="229" route="route_6" color="yellow"/>
    <vehicle id="vehicle_530" type="Car" depart="230" route="route_6" color="white"/>
    <vehicle id="vehicle_531" type="Car" depart="231" route="route_6" color="yellow"/>
    
    <vehicle id="vehicle_532" type="Car" depart="232" route="route_7" color="yellow"/>
    <vehicle id="vehicle_533" type="Car" depart="233" route="route_7" color="white"/>
    <vehicle id="vehicle_534" type="Car" depart="234" route="route_7" color="yellow"/>
    <vehicle id="vehicle_535" type="Car" depart="235" route="route_7" color="white"/>
    <vehicle id="vehicle_536" type="Car" depart="236" route="route_7" color="white"/>
    <vehicle id="vehicle_537" type="Car" depart="237" route="route_7" color="yellow"/>
    <vehicle id="vehicle_538" type="Car" depart="238" route="route_7" color="white"/>
    <vehicle id="vehicle_539" type="Car" depart="239" route="route_7" color="white"/>
    <vehicle id="vehicle_121" type="Car" depart="239" route="route_8" color="white"/>
    <vehicle id="vehicle_540" type="Car" depart="240" route="route_7" color="white"/>
    <vehicle id="vehicle_122" type="Car" depart="240" route="route_8" color="yellow"/>
    <vehicle id="vehicle_541" type="Car" depart="241" route="route_7" color="white"/>
    <vehicle id="vehicle_542" type="Car" depart="242" route="route_7" color="yellow"/>
    <vehicle id="vehicle_543" type="Car" depart="243" route="route_7" color="white"/>
    <vehicle id="vehicle_544" type="Car" depart="244" route="route_7" color="white"/>
    <vehicle id="vehicle_545" type="Car" depart="245" route="route_7" color="yellow"/>
    <vehicle id="vehicle_546" type="Car" depart="246" route="route_7" color="white"/>
    <vehicle id="vehicle_123" type="Car" depart="246" route="route_8" color="yellow"/>
    <vehicle id="vehicle_547" type="Car" depart="247" route="route_7" color="white"/>
    
    <vehicle id="vehicle_548" type="Car" depart="248" route="route_2" color="white"/>
    <vehicle id="vehicle_549" type="Car" depart="249" route="route_2" color="yellow"/>
    <vehicle id="vehicle_550" type="Car" depart="250" route="route_2" color="white"/>
    <vehicle id="vehicle_551" type="Car" depart="251" route="route_2" color="yellow"/>
    <vehicle id="vehicle_552" type="Car" depart="252" route="route_2" color="white"/>
    <vehicle id="vehicle_124" type="Car" depart="252" route="route_8" color="green"/>
    <vehicle id="vehicle_553" type="Car" depart="253" route="route_2" color="white"/>
    <vehicle id="vehicle_554" type="Car" depart="254" route="route_2" color="white"/>
    <vehicle id="vehicle_555" type="Car" depart="255" route="route_2" color="yellow"/>
    <vehicle id="vehicle_150" type="Car" depart="255" route="route_8" color="yellow"/>
    <vehicle id="vehicle_556" type="Car" depart="256" route="route_0" color="white"/>
    <vehicle id="vehicle_557" type="Car" depart="257" route="route_0" color="white"/>
    <vehicle id="vehicle_558" type="Car" depart="258" route="route_0" color="white"/>
    <vehicle id="vehicle_559" type="Car" depart="259" route="route_0" color="white"/>
    <vehicle id="vehicle_560" type="Car" depart="260" route="route_0" color="white"/>
    
    <vehicle id="vehicle_561" type="Car" depart="261" route="route_5" color="yellow"/>
    <vehicle id="vehicle_562" type="Car" depart="262" route="route_5" color="white"/>
    <vehicle id="vehicle_125" type="Car" depart="262" route="route_8" color="yellow"/>
    <vehicle id="vehicle_563" type="Car" depart="263" route="route_5" color="yellow"/>