

<routes xmlns:xsi="http://www.w3.org/2001/XMLSchema-instance" xsi:noNamespaceSchemaLocation="http://sumo.dlr.de/xsd/routes_file.xsd">
    
    <vType accel="1.0" decel="5.0" id="Car" length="12.0" maxSpeed="50.0" sigma="0.0"/>
    <vType accel="1.0" decel="5.0" id="Bus" length="20.0" maxSpeed="10.0" sigma="0.0"/>
    
    <route id="route_0" edges="32695337#3 32695337#4 32695337#5 32695337#6 561109442 527769689 81460383#0 81460383#1 527769699#0 527769699#1 527769699#2" color="blue"/>
    <route id="route_1" edges="32695337#3 32695337#4 32695337#5 32695337#6 561109442 527769688 -537198009#2 -537198009#1" color="blue"/>
    
    <route id="route_2" edges="537198006#0 537198006#1 537198006#2 130889358 130889390#2 130889390#3" color="blue"/>
   
    <route id="route_3" edges="32695337#3 32695337#4 32695337#5 32695337#6 559553102 -553265819#1" color="blue"/>
    <route id="route_4" edges="32695337#3 32695337#4 32695337#5 32695337#6 561109442 527769689 500478327#0 53010953#0" color="blue"/>
    <route id="route_5" edges="32695337#3 32695337#4 32695337#5 32695337#6 561109442 527769689 81460383#0 81460383#1 527769699#0 -527769693 -52325582#6 -52325582#5 -52325582#4" color="blue"/>
    <route id="route_6" edges="32695337#3 32695337#4 32695337#5 32695337#6 561109442 527769689 81460383#0 553272121 -515622705#2" color="blue"/>
    <route id="route_7" edges="32695337#3 32695337#4 32695337#5 32695337#6 561109442 527769689 81460383#0 81460383#1 527769699#0 53138363#0" color="blue"/>
    
    
    <vehicle id="vehicle_001" type="Bus" depart="30" route="route_0" color="green"/>
    <vehicle id="vehicle_002" type="Car" depart="30" route="route_0" color="yellow"/>
    <vehicle id="vehicle_003" type="Car" depart="30" route="route_0" color="yellow"/>
    <vehicle id="vehicle_004" type="Car" depart="30" route="route_0" color="yellow"/>
    <vehicle id="vehicle_005" type="Car" depart="30" route="route_0" color="yellow"/>
    <vehicle id="vehicle_006" type="Car" depart="30" route="route_0" color="yellow"/>
</routes>
