

<routes xmlns:xsi="http://www.w3.org/2001/XMLSchema-instance" xsi:noNamespaceSchemaLocation="http://sumo.dlr.de/xsd/routes_file.xsd">
    
    <vType accel="1.0" decel="5.0" id="Car" length="5.0" maxSpeed="50.0" sigma="0.0"/>
    <vType accel="1.0" decel="5.0" id="Bus" length="10.0" maxSpeed="10.0" sigma="0.0"/>
    
    <route id="route_0" edges="32695337#3 32695337#4 32695337#5 32695337#6 561109442 527769689 81460383#0 81460383#1 527769699#0 527769699#1 527769699#2" color="blue"/>
    <route id="route_1" edges="32695337#3 32695337#4 32695337#5 32695337#6 561109442 527769688 -537198009#2 -537198009#1" color="blue"/>
    
    <route id="route_2" edges="537198006#0 537198006#1 537198006#2 130889358 130889390#2 130889390#3" color="blue"/>
   
    <route id="route_3" edges="32695337#3 32695337#4 32695337#5 32695337#6 559553102 -553265819#1" color="blue"/>
    <route id="route_4" edges="32695337#3 32695337#4 32695337#5 32695337#6 561109442 527769689 500478327#0 53010953#0" color="blue"/>
    <route id="route_5" edges="32695337#3 32695337#4 32695337#5 32695337#6 561109442 527769689 81460383#0 81460383#1 527769699#0 -527769693 -52325582#6 -52325582#5 -52325582#4" color="blue"/>
    <route id="route_6" edges="32695337#3 32695337#4 32695337#5 32695337#6 561109442 527769689 81460383#0 553272121 -515622705#2" color="blue"/>
    <route id="route_7" edges="32695337#3 32695337#4 32695337#5 32695337#6 561109442 527769689 81460383#0 81460383#1 527769699#0 53138363#0" color="blue"/>
    <route id="route_10" edges="537198009#1 537198009#2 240723858 81460383#0 553272121 -515622705#2" color="blue"/>
    <route id="route_11" edges="537198009#1 537198009#2 240723858 81460383#0 81460383#1 527769699#0 -527769693 -52325582#6 -52325582#5 -52325582#4" color="blue"/>
    <route id="route_12" edges="537198009#1 537198009#2 240723858 500478327#0 500478327#1 559553102 -553265819#1" color="blue"/>
    
    <!--Rutas Jonnathan-->
    <route id="route_13" edges="553265819#1 559553100 527769688 -537198009#2 -537198009#1" color="blue"/>
    <route id="route_14" edges="553265819#1 559553100 527769689 81460383#0 553272121 -515622705#2" color="blue"/>
    <route id="route_15" edges="553265819#1 559553100 527769689 81460383#0 81460383#1 527769699#0 53138363#0" color="blue"/>
    <route id="route_16" edges="553265819#1 559553100 527769689 81460383#0 81460383#1 527769699#0 527769699#1 527769699#2" color="blue"/>
    <route id="route_17" edges="553265819#1 559553100 527769689 81460383#0 81460383#1 527769699#0 -527769693 -52325582#6 -52325582#5 -52325582#4" color="blue"/>
    <route id="route_18" edges="553265819#1 559553100 527769689 81460383#0 81460383#1 527769699#0 -527769693 148619329#0" color="blue"/>
    <route id="route_19" edges="553265819#1 559553100 527769689 500478327#0 53010953#0" color="blue"/>
    
    <route id="route_8" edges="537198009#1 537198009#2 240723858 500478327#0 53010953#0" color="blue"/>
    <route id="route_9" edges="537198009#1 537198009#2 240723858 81460383#0 81460383#1 527769699#0 527769699#1 527769699#2" color="blue"/>
    
    <route id="route_20" edges="32695342#1 32695337#6 561109442 527769688 -537198009#2 -537198009#1" color="white"/>
    <route id="route_21" edges="-167342552 32695337#5 32695337#6 561109442 527769689 81460383#0 81460383#1 527769699#0 527769699#1 527769699#2" color="red"/>
    <route id="route_22" edges="37545133 32695337#4 32695337#5 32695337#6 561109442 527769689 81460383#0 81460383#1 527769699#0 -527769693 -52325582#6 -52325582#5 -52325582#4" color="yellow"/>
    <route id="route_23" edges="120392570#1 120392570#2 109595997#0 109595997#1 53010953#0" color="blue"/>
    <route id="route_24" edges="120392570#1 -52325582#6 -52325582#5 -52325582#4" color="blue"/>
    <route id="route_25" edges="120392570#1 120392570#2 109595997#0 109595997#1 500478327#1 559553102 -553265819#1" color="blue"/>
    <route id="route_26" edges="120392570#1 120392570#2 109595997#0 109595997#1 500478327#1 561109442 527769688 -537198009#2 -537198009#1" color="blue"/>
    <route id="route_27" edges="120392570#1 120392570#2 109595997#0 109595997#1 500478327#1 561109442 527769689 81460383#0 81460383#1 527769699#0 527769699#1 527769699#2" color="blue"/>
    
  
    
    <vehicle id="vehicle_001" type="Bus" depart="1" route="route_0" color="green"/>
    <vehicle id="vehicle_002" type="Car" depart="2" route="route_0" color="white"/>
    <vehicle id="vehicle_003" type="Car" depart="3" route="route_6" color="yellow"/>

    
    
   
</routes>
