<?xml version="1.0" encoding="UTF-8"?>

<!-- generated on 08/28/19 18:13:26 by Eclipse SUMO netedit Version 1.2.0
<configuration xmlns:xsi="http://www.w3.org/2001/XMLSchema-instance" xsi:noNamespaceSchemaLocation="http://sumo.dlr.de/xsd/netconvertConfiguration.xsd">

    <input>
        <sumo-net-file value="C:\Users\Usuario\Downloads\solucion01.net.xml"/>
    </input>

    <output>
        <output-file value="C:\Users\Usuario\Downloads\solucion01.net.xml"/>
    </output>

    <processing>
        <geometry.max-grade.fix value="false"/>
        <offset.disable-normalization value="true"/>
        <lefthand value="false"/>
    </processing>

    <junctions>
        <no-turnarounds value="true"/>
        <junctions.corner-detail value="5"/>
        <junctions.limit-turn-speed value="5.5"/>
        <rectangular-lane-cut value="false"/>
    </junctions>

    <pedestrian>
        <walkingareas value="false"/>
    </pedestrian>

</configuration>
-->

<net version="1.1" junctionCornerDetail="5" limitTurnSpeed="5.50" xmlns:xsi="http://www.w3.org/2001/XMLSchema-instance" xsi:noNamespaceSchemaLocation="http://sumo.dlr.de/xsd/net_file.xsd">

    <location netOffset="-697443.64,441133.98" convBoundary="186.66,827.90,2162.83,4553.30" origBoundary="-79.221668,-3.989046,-79.190062,-3.947907" projParameter="+proj=utm +zone=17 +ellps=WGS84 +datum=WGS84 +units=m +no_defs"/>

    <type id="highway.bridleway" priority="1" numLanes="1" speed="2.78" allow="pedestrian" oneway="1" width="2.00"/>
    <type id="highway.bus_guideway" priority="1" numLanes="1" speed="27.78" allow="bus" oneway="1"/>
    <type id="highway.cycleway" priority="1" numLanes="1" speed="8.33" allow="bicycle" oneway="0" width="1.00"/>
    <type id="highway.footway" priority="1" numLanes="1" speed="2.78" allow="pedestrian" oneway="1" width="2.00"/>
    <type id="highway.ford" priority="1" numLanes="1" speed="2.78" allow="army" oneway="0"/>
    <type id="highway.living_street" priority="2" numLanes="1" speed="2.78" disallow="tram rail_urban rail rail_electric ship" oneway="0"/>
    <type id="highway.motorway" priority="14" numLanes="2" speed="39.44" allow="private emergency authority army vip passenger hov taxi bus coach delivery truck trailer motorcycle evehicle custom1 custom2" oneway="1"/>
    <type id="highway.motorway_link" priority="9" numLanes="1" speed="22.22" allow="private emergency authority army vip passenger hov taxi bus coach delivery truck trailer motorcycle evehicle custom1 custom2" oneway="1"/>
    <type id="highway.path" priority="1" numLanes="1" speed="2.78" allow="bicycle pedestrian" oneway="1" width="2.00"/>
    <type id="highway.pedestrian" priority="1" numLanes="1" speed="2.78" allow="pedestrian" oneway="1" width="2.00"/>
    <type id="highway.primary" priority="12" numLanes="2" speed="27.78" disallow="tram rail_urban rail rail_electric ship" oneway="0"/>
    <type id="highway.primary_link" priority="7" numLanes="1" speed="22.22" disallow="tram rail_urban rail rail_electric ship" oneway="0"/>
    <type id="highway.raceway" priority="15" numLanes="2" speed="83.33" allow="vip" oneway="0"/>
    <type id="highway.residential" priority="3" numLanes="1" speed="13.89" disallow="tram rail_urban rail rail_electric ship" oneway="0"/>
    <type id="highway.secondary" priority="11" numLanes="2" speed="27.78" disallow="tram rail_urban rail rail_electric ship" oneway="0"/>
    <type id="highway.secondary_link" priority="6" numLanes="1" speed="22.22" disallow="tram rail_urban rail rail_electric ship" oneway="0"/>
    <type id="highway.service" priority="1" numLanes="1" speed="5.56" allow="delivery bicycle pedestrian" oneway="0"/>
    <type id="highway.stairs" priority="1" numLanes="1" speed="1.39" allow="pedestrian" oneway="1" width="2.00"/>
    <type id="highway.step" priority="1" numLanes="1" speed="1.39" allow="pedestrian" oneway="1" width="2.00"/>
    <type id="highway.steps" priority="1" numLanes="1" speed="1.39" allow="pedestrian" oneway="1" width="2.00"/>
    <type id="highway.tertiary" priority="10" numLanes="1" speed="22.22" disallow="tram rail_urban rail rail_electric ship" oneway="0"/>
    <type id="highway.tertiary_link" priority="5" numLanes="1" speed="22.22" disallow="tram rail_urban rail rail_electric ship" oneway="0"/>
    <type id="highway.track" priority="1" numLanes="1" speed="5.56" disallow="tram rail_urban rail rail_electric ship" oneway="0"/>
    <type id="highway.trunk" priority="13" numLanes="2" speed="27.78" disallow="tram rail_urban rail rail_electric bicycle pedestrian ship" oneway="0"/>
    <type id="highway.trunk_link" priority="8" numLanes="1" speed="22.22" disallow="tram rail_urban rail rail_electric bicycle pedestrian ship" oneway="0"/>
    <type id="highway.unclassified" priority="4" numLanes="1" speed="13.89" disallow="tram rail_urban rail rail_electric ship" oneway="0"/>
    <type id="highway.unsurfaced" priority="1" numLanes="1" speed="8.33" disallow="tram rail_urban rail rail_electric ship" oneway="0"/>
    <type id="railway.light_rail" priority="19" numLanes="1" speed="27.78" allow="rail_urban" oneway="1"/>
    <type id="railway.preserved" priority="16" numLanes="1" speed="27.78" allow="rail" oneway="1"/>
    <type id="railway.rail" priority="20" numLanes="1" speed="83.33" allow="rail rail_electric" oneway="1"/>
    <type id="railway.subway" priority="18" numLanes="1" speed="27.78" allow="rail_urban" oneway="1"/>
    <type id="railway.tram" priority="17" numLanes="1" speed="13.89" allow="tram" oneway="1"/>

    <edge id=":1202681024_0" function="internal">
        <lane id=":1202681024_0_0" index="0" disallow="tram rail_urban rail rail_electric ship" speed="12.28" length="9.09" shape="519.63,1826.98 522.27,1827.62 524.16,1828.15 525.98,1828.19 528.43,1827.38"/>
    </edge>
    <edge id=":1202681024_1" function="internal">
        <lane id=":1202681024_1_0" index="0" disallow="tram rail_urban rail rail_electric ship" speed="14.82" length="10.45" shape="520.72,1834.11 522.50,1831.63 523.95,1829.99 525.71,1828.73 528.43,1827.38"/>
    </edge>
    <edge id=":1202681075_0" function="internal">
        <lane id=":1202681075_0_0" index="0" disallow="tram rail_urban rail rail_electric ship" speed="11.77" length="5.94" shape="530.46,1826.45 531.99,1825.64 532.91,1824.86 533.65,1823.87 534.67,1822.43"/>
    </edge>
    <edge id=":1202681075_1" function="internal">
        <lane id=":1202681075_1_0" index="0" disallow="tram rail_urban rail rail_electric ship" speed="9.33" length="5.89" shape="530.46,1826.45 532.06,1825.86 533.24,1825.78 534.47,1826.04 536.17,1826.48"/>
    </edge>
    <edge id=":1202681157_0" function="internal">
        <lane id=":1202681157_0_0" index="0" disallow="tram rail_urban rail rail_electric ship" speed="7.02" length="8.06" shape="1543.50,2104.79 1541.27,2104.04 1539.28,2103.92 1537.54,2104.44 1536.04,2105.60"/>
    </edge>
    <edge id=":1202681157_1" function="internal">
        <lane id=":1202681157_1_0" index="0" disallow="tram rail_urban rail rail_electric ship" speed="19.44" length="9.24" shape="1542.41,2098.96 1536.04,2105.60"/>
        <lane id=":1202681157_1_1" index="1" disallow="tram rail_urban rail rail_electric ship" speed="19.44" length="9.24" shape="1540.12,2096.73 1533.70,2103.42"/>
    </edge>
    <edge id=":1254209056_0" function="internal">
        <lane id=":1254209056_0_0" index="0" disallow="tram rail_urban rail rail_electric ship" speed="7.34" length="9.21" shape="1523.65,2118.92 1522.43,2120.76 1521.99,2122.79 1522.33,2125.02 1523.45,2127.45"/>
    </edge>
    <edge id=":1254209056_1" function="internal">
        <lane id=":1254209056_1_0" index="0" disallow="tram rail_urban rail rail_electric ship" speed="19.44" length="13.02" shape="1523.65,2118.92 1514.53,2128.30"/>
        <lane id=":1254209056_1_1" index="1" disallow="tram rail_urban rail rail_electric ship" speed="19.44" length="13.02" shape="1521.31,2116.75 1512.28,2126.03"/>
    </edge>
    <edge id=":1254209056_3" function="internal">
        <lane id=":1254209056_3_0" index="0" disallow="tram rail_urban rail rail_electric ship" speed="26.86" length="13.63" shape="1514.19,2116.84 1517.47,2119.47 1519.55,2121.50 1521.26,2123.85 1523.45,2127.45"/>
        <lane id=":1254209056_3_1" index="1" disallow="tram rail_urban rail rail_electric ship" speed="25.71" length="13.63" shape="1512.22,2119.36 1515.23,2121.77 1517.13,2123.63 1518.69,2125.79 1520.70,2129.09"/>
    </edge>
    <edge id=":1254209056_5" function="internal">
        <lane id=":1254209056_5_0" index="0" disallow="tram rail_urban rail rail_electric ship" speed="5.87" length="7.84" shape="1512.22,2119.36 1513.65,2120.89 1514.13,2122.51 1513.68,2124.22 1512.28,2126.03"/>
    </edge>
    <edge id=":1353352287_0" function="internal">
        <lane id=":1353352287_0_0" index="0" disallow="tram rail_urban rail rail_electric ship" speed="7.35" length="21.67" shape="486.88,1830.40 481.29,1825.40 480.05,1822.30 483.17,1821.13 490.63,1821.87"/>
    </edge>
    <edge id=":1353352287_1" function="internal">
        <lane id=":1353352287_1_0" index="0" disallow="tram rail_urban rail rail_electric ship" speed="4.58" length="7.22" shape="488.83,1827.86 486.96,1826.20 486.55,1825.17 487.59,1824.77 490.08,1825.02"/>
    </edge>
    <edge id=":1439932933_0" function="internal">
        <lane id=":1439932933_0_0" index="0" disallow="tram rail_urban rail rail_electric ship" speed="13.89" length="0.38" shape="1955.97,1372.09 1955.86,1372.11 1955.78,1372.13 1955.71,1372.15 1955.61,1372.20"/>
    </edge>
    <edge id=":1439932933_1" function="internal">
        <lane id=":1439932933_1_0" index="0" disallow="tram rail_urban rail rail_electric ship" speed="13.89" length="1.15" shape="1954.31,1369.27 1954.62,1369.14 1954.84,1369.06 1955.07,1369.00 1955.40,1368.94"/>
    </edge>
    <edge id=":1441548376_0" function="internal">
        <lane id=":1441548376_0_0" index="0" allow="delivery bicycle pedestrian" speed="9.70" length="8.04" shape="1797.33,1323.06 1799.59,1323.00 1801.06,1322.34 1802.38,1321.18 1804.20,1319.59"/>
    </edge>
    <edge id=":1441548376_1" function="internal">
        <lane id=":1441548376_1_0" index="0" disallow="tram rail_urban rail rail_electric ship" speed="22.22" length="8.18" shape="1797.33,1323.06 1805.42,1323.44"/>
        <lane id=":1441548376_1_1" index="1" disallow="tram rail_urban rail rail_electric ship" speed="22.22" length="8.18" shape="1797.02,1326.24 1805.27,1326.64"/>
    </edge>
    <edge id=":1441548432_0" function="internal">
        <lane id=":1441548432_0_0" index="0" disallow="tram rail_urban rail rail_electric ship" speed="8.92" length="7.20" shape="1883.25,1258.37 1885.12,1256.80 1886.50,1255.37 1887.38,1254.08 1887.76,1252.93"/>
    </edge>
    <edge id=":1441548432_1" function="internal">
        <lane id=":1441548432_1_0" index="0" disallow="tram rail_urban rail rail_electric ship" speed="13.89" length="7.54" shape="1886.81,1260.41 1887.76,1252.93"/>
        <lane id=":1441548432_1_1" index="1" disallow="tram rail_urban rail rail_electric ship" speed="13.89" length="7.54" shape="1889.99,1260.81 1890.94,1253.33"/>
    </edge>
    <edge id=":1443923733_0" function="internal">
        <lane id=":1443923733_0_0" index="0" disallow="tram rail_urban rail rail_electric ship" speed="13.89" length="13.87" shape="1091.58,1679.70 1088.23,1678.47 1085.04,1677.42 1081.82,1676.47 1078.36,1675.56"/>
    </edge>
    <edge id=":1443923733_1" function="internal">
        <lane id=":1443923733_1_0" index="0" disallow="tram rail_urban rail rail_electric ship" speed="8.58" length="5.50" shape="1091.58,1679.70 1088.42,1677.91 1087.25,1676.47"/>
    </edge>
    <edge id=":1443923733_2" function="internal">
        <lane id=":1443923733_2_0" index="0" disallow="tram rail_urban rail rail_electric ship" speed="3.65" length="2.34" shape="1091.58,1679.70 1090.75,1678.52 1090.66,1677.63"/>
    </edge>
    <edge id=":1443923733_9" function="internal">
        <lane id=":1443923733_9_0" index="0" disallow="tram rail_urban rail rail_electric ship" speed="8.58" length="8.66" shape="1087.25,1676.47 1086.39,1675.40 1085.48,1672.18 1085.71,1668.24"/>
    </edge>
    <edge id=":1443923733_10" function="internal">
        <lane id=":1443923733_10_0" index="0" disallow="tram rail_urban rail rail_electric ship" speed="3.65" length="2.34" shape="1090.66,1677.63 1091.32,1677.03 1092.73,1676.71"/>
    </edge>
    <edge id=":1443923733_3" function="internal">
        <lane id=":1443923733_3_0" index="0" disallow="tram rail_urban rail rail_electric ship" speed="7.18" length="9.66" shape="1088.86,1668.82 1088.69,1671.56 1089.28,1673.78 1090.62,1675.50 1092.73,1676.71"/>
    </edge>
    <edge id=":1443923733_4" function="internal">
        <lane id=":1443923733_4_0" index="0" disallow="tram rail_urban rail rail_electric ship" speed="7.89" length="14.44" shape="1088.86,1668.82 1087.58,1672.60 1085.41,1674.99 1082.33,1675.97 1078.36,1675.56"/>
    </edge>
    <edge id=":1443923733_5" function="internal">
        <lane id=":1443923733_5_0" index="0" disallow="tram rail_urban rail rail_electric ship" speed="3.65" length="4.67" shape="1088.86,1668.82 1087.86,1669.86 1087.00,1670.10 1086.28,1669.57 1085.71,1668.24"/>
    </edge>
    <edge id=":1443923733_6" function="internal">
        <lane id=":1443923733_6_0" index="0" disallow="tram rail_urban rail rail_electric ship" speed="6.37" length="9.04" shape="1079.14,1672.46 1081.63,1672.72 1083.55,1672.10 1084.91,1670.61 1085.71,1668.24"/>
    </edge>
    <edge id=":1443923733_7" function="internal">
        <lane id=":1443923733_7_0" index="0" disallow="tram rail_urban rail rail_electric ship" speed="13.89" length="14.25" shape="1079.14,1672.46 1082.66,1673.38 1086.00,1674.37 1089.32,1675.46 1092.73,1676.71"/>
    </edge>
    <edge id=":1443923733_8" function="internal">
        <lane id=":1443923733_8_0" index="0" disallow="tram rail_urban rail rail_electric ship" speed="3.65" length="2.34" shape="1079.14,1672.46 1080.11,1673.52 1080.30,1674.40"/>
    </edge>
    <edge id=":1443923733_11" function="internal">
        <lane id=":1443923733_11_0" index="0" disallow="tram rail_urban rail rail_electric ship" speed="3.65" length="2.34" shape="1080.30,1674.40 1079.72,1675.08 1078.36,1675.56"/>
    </edge>
    <edge id=":1443923738_0" function="internal">
        <lane id=":1443923738_0_0" index="0" disallow="tram rail_urban rail rail_electric ship" speed="13.89" length="16.37" shape="1376.75,1940.17 1374.65,1936.81 1372.68,1933.08 1370.90,1929.25 1369.37,1925.58"/>
    </edge>
    <edge id=":1443923738_1" function="internal">
        <lane id=":1443923738_1_0" index="0" disallow="tram rail_urban rail rail_electric ship" speed="9.74" length="5.98" shape="1376.75,1940.17 1375.29,1936.95 1375.21,1934.50"/>
    </edge>
    <edge id=":1443923738_2" function="internal">
        <lane id=":1443923738_2_0" index="0" disallow="tram rail_urban rail rail_electric ship" speed="3.65" length="2.34" shape="1376.75,1940.17 1376.72,1938.72 1377.14,1937.94"/>
    </edge>
    <edge id=":1443923738_9" function="internal">
        <lane id=":1443923738_9_0" index="0" disallow="tram rail_urban rail rail_electric ship" speed="9.74" length="10.15" shape="1375.21,1934.50 1375.17,1933.39 1376.40,1929.49 1378.96,1925.26"/>
    </edge>
    <edge id=":1443923738_10" function="internal">
        <lane id=":1443923738_10_0" index="0" disallow="tram rail_urban rail rail_electric ship" speed="3.65" length="2.34" shape="1377.14,1937.94 1378.03,1937.81 1379.37,1938.33"/>
    </edge>
    <edge id=":1443923738_3" function="internal">
        <lane id=":1443923738_3_0" index="0" disallow="tram rail_urban rail rail_electric ship" speed="8.51" length="12.14" shape="1381.54,1927.15 1379.49,1930.46 1378.44,1933.43 1378.40,1936.05 1379.37,1938.33"/>
    </edge>
    <edge id=":1443923738_4" function="internal">
        <lane id=":1443923738_4_0" index="0" disallow="tram rail_urban rail rail_electric ship" speed="7.39" length="17.07" shape="1381.54,1927.15 1377.97,1930.89 1374.75,1931.87 1371.88,1930.10 1369.37,1925.58"/>
    </edge>
    <edge id=":1443923738_5" function="internal">
        <lane id=":1443923738_5_0" index="0" disallow="tram rail_urban rail rail_electric ship" speed="3.65" length="4.67" shape="1381.54,1927.15 1380.19,1927.65 1379.30,1927.50 1378.90,1926.70 1378.96,1925.26"/>
    </edge>
    <edge id=":1443923738_6" function="internal">
        <lane id=":1443923738_6_0" index="0" disallow="tram rail_urban rail rail_electric ship" speed="5.63" length="9.28" shape="1372.34,1924.41 1373.71,1926.86 1375.27,1927.82 1377.02,1927.29 1378.96,1925.26"/>
    </edge>
    <edge id=":1443923738_7" function="internal">
        <lane id=":1443923738_7_0" index="0" disallow="tram rail_urban rail rail_electric ship" speed="13.89" length="15.63" shape="1372.34,1924.41 1373.82,1927.97 1375.48,1931.58 1377.33,1935.08 1379.37,1938.33"/>
    </edge>
    <edge id=":1443923738_8" function="internal">
        <lane id=":1443923738_8_0" index="0" disallow="tram rail_urban rail rail_electric ship" speed="3.65" length="2.34" shape="1372.34,1924.41 1372.04,1925.82 1371.45,1926.48"/>
    </edge>
    <edge id=":1443923738_11" function="internal">
        <lane id=":1443923738_11_0" index="0" disallow="tram rail_urban rail rail_electric ship" speed="3.65" length="2.34" shape="1371.45,1926.48 1370.56,1926.41 1369.37,1925.58"/>
    </edge>
    <edge id=":1443923740_0" function="internal">
        <lane id=":1443923740_0_0" index="0" disallow="tram rail_urban rail rail_electric ship" speed="6.21" length="5.62" shape="1269.81,1751.99 1268.69,1751.03 1267.98,1749.90 1267.66,1748.60 1267.75,1747.12"/>
    </edge>
    <edge id=":1443923740_1" function="internal">
        <lane id=":1443923740_1_0" index="0" disallow="tram rail_urban rail rail_electric ship" speed="3.98" length="1.87" shape="1270.90,1747.71 1270.87,1748.20 1270.97,1748.63 1271.21,1749.01 1271.58,1749.33"/>
    </edge>
    <edge id=":1443923749_0" function="internal">
        <lane id=":1443923749_0_0" index="0" disallow="tram rail_urban rail rail_electric ship" speed="13.89" length="24.45" shape="1359.43,1812.18 1335.37,1807.87"/>
    </edge>
    <edge id=":1443923749_1" function="internal">
        <lane id=":1443923749_1_0" index="0" disallow="tram rail_urban rail rail_electric ship" speed="13.89" length="7.22" shape="1359.43,1812.18 1354.56,1810.33 1352.80,1809.37"/>
    </edge>
    <edge id=":1443923749_2" function="internal">
        <lane id=":1443923749_2_0" index="0" disallow="tram rail_urban rail rail_electric ship" speed="8.34" length="5.41" shape="1359.43,1812.18 1355.75,1810.80 1354.75,1809.72"/>
    </edge>
    <edge id=":1443923749_3" function="internal">
        <lane id=":1443923749_3_0" index="0" disallow="tram rail_urban rail rail_electric ship" speed="3.65" length="2.34" shape="1359.43,1812.18 1358.41,1811.17 1358.17,1810.31"/>
    </edge>
    <edge id=":1443923749_16" function="internal">
        <lane id=":1443923749_16_0" index="0" disallow="tram rail_urban rail rail_electric ship" speed="13.89" length="17.54" shape="1352.80,1809.37 1348.32,1806.94 1342.26,1803.16 1337.90,1800.14"/>
    </edge>
    <edge id=":1443923749_17" function="internal">
        <lane id=":1443923749_17_0" index="0" disallow="tram rail_urban rail rail_electric ship" speed="8.34" length="10.31" shape="1354.75,1809.72 1353.44,1808.31 1352.49,1804.74 1352.91,1800.07"/>
    </edge>
    <edge id=":1443923749_18" function="internal">
        <lane id=":1443923749_18_0" index="0" disallow="tram rail_urban rail rail_electric ship" speed="3.65" length="2.34" shape="1358.17,1810.31 1358.71,1809.60 1360.04,1809.04"/>
    </edge>
    <edge id=":1443923749_4" function="internal">
        <lane id=":1443923749_4_0" index="0" disallow="tram rail_urban rail rail_electric ship" speed="6.92" length="10.50" shape="1356.04,1800.73 1355.72,1803.97 1356.28,1806.43 1357.72,1808.12 1360.04,1809.04"/>
    </edge>
    <edge id=":1443923749_5" function="internal">
        <lane id=":1443923749_5_0" index="0" disallow="tram rail_urban rail rail_electric ship" speed="10.45" length="24.25" shape="1356.04,1800.73 1353.93,1805.06 1349.78,1807.69 1343.59,1808.63 1335.37,1807.87"/>
    </edge>
    <edge id=":1443923749_6" function="internal">
        <lane id=":1443923749_6_0" index="0" disallow="tram rail_urban rail rail_electric ship" speed="8.68" length="22.55" shape="1356.04,1800.73 1354.01,1804.93 1350.31,1806.23 1344.94,1804.64 1337.90,1800.14"/>
    </edge>
    <edge id=":1443923749_7" function="internal">
        <lane id=":1443923749_7_0" index="0" disallow="tram rail_urban rail rail_electric ship" speed="3.65" length="4.67" shape="1356.04,1800.73 1355.01,1801.74 1354.14,1801.96 1353.44,1801.41 1352.91,1800.07"/>
    </edge>
    <edge id=":1443923749_8" function="internal">
        <lane id=":1443923749_8_0" index="0" disallow="tram rail_urban rail rail_electric ship" speed="7.34" length="15.73" shape="1339.83,1797.58 1345.05,1801.06 1348.97,1802.64 1351.59,1802.30 1352.91,1800.07"/>
    </edge>
    <edge id=":1443923749_9" function="internal">
        <lane id=":1443923749_9_0" index="0" disallow="tram rail_urban rail rail_electric ship" speed="13.89" length="23.32" shape="1339.83,1797.58 1343.98,1800.51 1349.59,1804.09 1355.37,1807.28 1360.04,1809.04"/>
    </edge>
    <edge id=":1443923749_10" function="internal">
        <lane id=":1443923749_10_0" index="0" disallow="tram rail_urban rail rail_electric ship" speed="6.28" length="15.32" shape="1339.83,1797.58 1342.09,1800.93 1341.76,1804.53 1339.35,1807.24 1335.37,1807.87"/>
    </edge>
    <edge id=":1443923749_11" function="internal">
        <lane id=":1443923749_11_0" index="0" disallow="tram rail_urban rail rail_electric ship" speed="3.65" length="4.67" shape="1339.83,1797.58 1340.30,1798.95 1340.14,1799.83 1339.34,1800.22 1337.90,1800.14"/>
    </edge>
    <edge id=":1443923749_12" function="internal">
        <lane id=":1443923749_12_0" index="0" disallow="tram rail_urban rail rail_electric ship" speed="5.59" length="11.72" shape="1335.91,1804.72 1339.96,1805.11 1341.64,1804.48 1340.95,1802.82 1337.90,1800.14"/>
    </edge>
    <edge id=":1443923749_13" function="internal">
        <lane id=":1443923749_13_0" index="0" disallow="tram rail_urban rail rail_electric ship" speed="9.37" length="19.32" shape="1335.91,1804.72 1342.77,1805.43 1347.89,1804.90 1351.27,1803.11 1352.91,1800.07"/>
    </edge>
    <edge id=":1443923749_14" function="internal">
        <lane id=":1443923749_14_0" index="0" disallow="tram rail_urban rail rail_electric ship" speed="13.89" length="24.51" shape="1335.91,1804.72 1360.04,1809.04"/>
    </edge>
    <edge id=":1443923749_15" function="internal">
        <lane id=":1443923749_15_0" index="0" disallow="tram rail_urban rail rail_electric ship" speed="3.65" length="2.34" shape="1335.91,1804.72 1336.96,1805.71 1337.22,1806.57"/>
    </edge>
    <edge id=":1443923749_19" function="internal">
        <lane id=":1443923749_19_0" index="0" disallow="tram rail_urban rail rail_electric ship" speed="3.65" length="2.34" shape="1337.22,1806.57 1336.69,1807.29 1335.37,1807.87"/>
    </edge>
    <edge id=":1443923756_0" function="internal">
        <lane id=":1443923756_0_0" index="0" disallow="tram rail_urban rail rail_electric ship" speed="13.89" length="14.62" shape="1311.62,1780.30 1299.66,1771.90"/>
    </edge>
    <edge id=":1443923756_1" function="internal">
        <lane id=":1443923756_1_0" index="0" disallow="tram rail_urban rail rail_electric ship" speed="9.90" length="5.20" shape="1311.62,1780.30 1309.28,1777.84 1308.55,1776.19"/>
    </edge>
    <edge id=":1443923756_2" function="internal">
        <lane id=":1443923756_2_0" index="0" disallow="tram rail_urban rail rail_electric ship" speed="3.65" length="2.34" shape="1311.62,1780.30 1311.15,1778.94 1311.31,1778.06"/>
    </edge>
    <edge id=":1443923756_9" function="internal">
        <lane id=":1443923756_9_0" index="0" disallow="tram rail_urban rail rail_electric ship" speed="9.90" length="9.82" shape="1308.55,1776.19 1307.91,1774.73 1307.51,1770.97 1308.08,1766.57"/>
    </edge>
    <edge id=":1443923756_10" function="internal">
        <lane id=":1443923756_10_0" index="0" disallow="tram rail_urban rail rail_electric ship" speed="3.65" length="2.34" shape="1311.31,1778.06 1312.11,1777.66 1313.55,1777.75"/>
    </edge>
    <edge id=":1443923756_3" function="internal">
        <lane id=":1443923756_3_0" index="0" disallow="tram rail_urban rail rail_electric ship" speed="8.67" length="11.35" shape="1311.20,1767.27 1310.73,1770.71 1310.96,1773.61 1311.90,1775.95 1313.55,1777.75"/>
    </edge>
    <edge id=":1443923756_4" function="internal">
        <lane id=":1443923756_4_0" index="0" disallow="tram rail_urban rail rail_electric ship" speed="7.51" length="15.84" shape="1311.20,1767.27 1309.58,1771.58 1307.12,1773.79 1303.81,1773.89 1299.66,1771.90"/>
    </edge>
    <edge id=":1443923756_5" function="internal">
        <lane id=":1443923756_5_0" index="0" disallow="tram rail_urban rail rail_electric ship" speed="3.65" length="4.67" shape="1311.20,1767.27 1310.16,1768.26 1309.29,1768.48 1308.60,1767.91 1308.08,1766.57"/>
    </edge>
    <edge id=":1443923756_6" function="internal">
        <lane id=":1443923756_6_0" index="0" disallow="tram rail_urban rail rail_electric ship" speed="5.86" length="9.12" shape="1301.43,1769.23 1303.82,1770.38 1305.73,1770.32 1307.15,1769.05 1308.08,1766.57"/>
    </edge>
    <edge id=":1443923756_7" function="internal">
        <lane id=":1443923756_7_0" index="0" disallow="tram rail_urban rail rail_electric ship" speed="13.89" length="14.81" shape="1301.43,1769.23 1313.55,1777.75"/>
    </edge>
    <edge id=":1443923756_8" function="internal">
        <lane id=":1443923756_8_0" index="0" disallow="tram rail_urban rail rail_electric ship" speed="3.65" length="2.34" shape="1301.43,1769.23 1301.99,1770.56 1301.87,1771.45"/>
    </edge>
    <edge id=":1443923756_11" function="internal">
        <lane id=":1443923756_11_0" index="0" disallow="tram rail_urban rail rail_electric ship" speed="3.65" length="2.34" shape="1301.87,1771.45 1301.10,1771.90 1299.66,1771.90"/>
    </edge>
    <edge id=":1443923764_0" function="internal">
        <lane id=":1443923764_0_0" index="0" disallow="tram rail_urban rail rail_electric ship" speed="5.79" length="9.15" shape="1110.87,1582.19 1108.46,1580.99 1106.57,1581.04 1105.21,1582.34 1104.36,1584.89"/>
    </edge>
    <edge id=":1443923764_1" function="internal">
        <lane id=":1443923764_1_0" index="0" disallow="tram rail_urban rail rail_electric ship" speed="13.89" length="15.20" shape="1110.87,1582.19 1107.67,1580.15 1104.30,1578.34 1100.80,1576.85 1097.19,1575.75"/>
    </edge>
    <edge id=":1443923764_2" function="internal">
        <lane id=":1443923764_2_0" index="0" disallow="tram rail_urban rail rail_electric ship" speed="3.65" length="2.34" shape="1110.87,1582.19 1110.33,1580.85 1110.45,1579.96"/>
    </edge>
    <edge id=":1443923764_9" function="internal">
        <lane id=":1443923764_9_0" index="0" disallow="tram rail_urban rail rail_electric ship" speed="3.65" length="2.34" shape="1110.45,1579.96 1111.23,1579.53 1112.68,1579.55"/>
    </edge>
    <edge id=":1443923764_3" function="internal">
        <lane id=":1443923764_3_0" index="0" disallow="tram rail_urban rail rail_electric ship" speed="13.89" length="16.36" shape="1097.93,1572.64 1101.70,1573.81 1105.58,1575.47 1109.32,1577.44 1112.68,1579.55"/>
    </edge>
    <edge id=":1443923764_4" function="internal">
        <lane id=":1443923764_4_0" index="0" disallow="tram rail_urban rail rail_electric ship" speed="8.51" length="6.50" shape="1097.93,1572.64 1101.45,1574.14 1103.22,1576.14"/>
    </edge>
    <edge id=":1443923764_5" function="internal">
        <lane id=":1443923764_5_0" index="0" disallow="tram rail_urban rail rail_electric ship" speed="3.65" length="2.44" shape="1097.93,1572.64 1098.91,1573.69 1099.11,1574.56 1099.05,1574.64"/>
    </edge>
    <edge id=":1443923764_10" function="internal">
        <lane id=":1443923764_10_0" index="0" disallow="tram rail_urban rail rail_electric ship" speed="8.51" length="9.07" shape="1103.22,1576.14 1103.70,1576.69 1104.67,1580.27 1104.36,1584.89"/>
    </edge>
    <edge id=":1443923764_11" function="internal">
        <lane id=":1443923764_11_0" index="0" disallow="tram rail_urban rail rail_electric ship" speed="3.65" length="2.23" shape="1099.05,1574.64 1098.54,1575.25 1097.19,1575.75"/>
    </edge>
    <edge id=":1443923764_6" function="internal">
        <lane id=":1443923764_6_0" index="0" disallow="tram rail_urban rail rail_electric ship" speed="7.12" length="10.61" shape="1101.22,1584.31 1101.47,1581.04 1100.88,1578.53 1099.45,1576.76 1097.19,1575.75"/>
    </edge>
    <edge id=":1443923764_7" function="internal">
        <lane id=":1443923764_7_0" index="0" disallow="tram rail_urban rail rail_electric ship" speed="7.47" length="16.12" shape="1101.22,1584.31 1102.71,1579.81 1105.11,1577.52 1108.44,1577.43 1112.68,1579.55"/>
    </edge>
    <edge id=":1443923764_8" function="internal">
        <lane id=":1443923764_8_0" index="0" disallow="tram rail_urban rail rail_electric ship" speed="3.65" length="4.67" shape="1101.22,1584.31 1102.22,1583.27 1103.08,1583.02 1103.79,1583.56 1104.36,1584.89"/>
    </edge>
    <edge id=":1443923765_0" function="internal">
        <lane id=":1443923765_0_0" index="0" disallow="tram rail_urban rail rail_electric ship" speed="3.65" length="4.67" shape="858.99,1840.26 857.98,1839.23 857.75,1838.36 858.31,1837.66 859.65,1837.12"/>
    </edge>
    <edge id=":1443923769_0" function="internal">